@<TRIPOS>MOLECULE
mol_11531192_0
 54 58 0 0 0
SMALL
GASTEIGER

@<TRIPOS>ATOM
      1 C          -2.5042    0.0085    0.0445 C.3     1  UNL1       -0.0623
      2 C          -1.0212    0.0228    0.4199 C.3     1  UNL1       -0.0409
      3 C          -0.3474    1.2927   -0.1385 C.3     1  UNL1       -0.0331
      4 C           1.1819    1.2268   -0.0928 C.3     1  UNL1        0.0299
      5 N           1.5609   -0.0031   -0.7621 N.pl3   1  UNL1       -0.2554
      6 C           1.1856   -1.1867   -0.0106 C.3     1  UNL1        0.0299
      7 C          -0.3408   -1.2680   -0.0747 C.3     1  UNL1       -0.0331
      8 N           2.8382   -0.0329   -1.3291 N.ar    1  UNL1       -0.1879
      9 C           2.9947   -0.5338   -2.5903 C.ar    1  UNL1        0.0555
     10 C           4.2938   -0.2980   -2.9470 C.ar    1  UNL1        0.0294
     11 C           4.8620    0.3744   -1.8268 C.ar    1  UNL1        0.1023
     12 N           3.9750    0.4784   -0.8206 N.ar    1  UNL1       -0.1521
     13 C           6.2184    0.9082   -1.7539 C.ar    1  UNL1        0.0056
     14 C           7.1074    0.4754   -0.7739 C.ar    1  UNL1       -0.0343
     15 C           8.4193    0.9151   -0.8484 C.ar    1  UNL1        0.0282
     16 N           8.8864    1.7459   -1.8073 N.ar    1  UNL1       -0.2632
     17 C           7.9982    2.1708   -2.7293 C.ar    1  UNL1        0.0282
     18 C           6.6698    1.7872   -2.7440 C.ar    1  UNL1       -0.0343
     19 C           4.8639   -0.6945   -4.2134 C.ar    1  UNL1       -0.0140
     20 C           6.0251   -1.4820   -4.2214 C.ar    1  UNL1       -0.0501
     21 C           6.5986   -1.8072   -5.4377 C.ar    1  UNL1       -0.0375
     22 C           6.0189   -1.3597   -6.6181 C.ar    1  UNL1        0.0026
     23 C           4.8649   -0.5972   -6.6467 C.ar    1  UNL1       -0.0519
     24 C           4.2810   -0.2644   -5.4235 C.ar    1  UNL1       -0.0533
     25 C           6.8444   -1.8128   -7.7232 C.2     1  UNL1        0.0876
     26 N           6.5793   -1.5472   -8.9637 N.2     1  UNL1       -0.0915
     27 O           7.5560   -2.0988   -9.7988 O.2     1  UNL1       -0.4090
     28 C           8.0206   -2.5958   -7.1894 C.3     1  UNL1       -0.0027
     29 C           7.8333   -2.6164   -5.6657 C.3     1  UNL1       -0.0215
     30 H          -3.0125    0.9006    0.4236 H       1  UNL1        0.0232
     31 H          -3.0049   -0.8724    0.4587 H       1  UNL1        0.0232
     32 H          -2.6348   -0.0140   -1.0441 H       1  UNL1        0.0232
     33 H          -0.9387    0.0490    1.5139 H       1  UNL1        0.0299
     34 H          -0.6957    2.1714    0.4172 H       1  UNL1        0.0283
     35 H          -0.6565    1.4420   -1.1825 H       1  UNL1        0.0283
     36 H           1.5458    1.2602    0.9423 H       1  UNL1        0.0480
     37 H           1.5800    2.1094   -0.6079 H       1  UNL1        0.0480
     38 H           1.5386   -1.1463    1.0277 H       1  UNL1        0.0480
     39 H           1.5970   -2.1007   -0.4565 H       1  UNL1        0.0480
     40 H          -0.6915   -2.1241    0.5138 H       1  UNL1        0.0283
     41 H          -0.6367   -1.4644   -1.1151 H       1  UNL1        0.0283
     42 H           2.1676   -0.9964   -3.1085 H       1  UNL1        0.0852
     43 H           6.7977   -0.2094    0.0072 H       1  UNL1        0.0639
     44 H           9.1606    0.5893   -0.1244 H       1  UNL1        0.0830
     45 H           8.3960    2.8388   -3.4882 H       1  UNL1        0.0830
     46 H           6.0098    2.1511   -3.5245 H       1  UNL1        0.0639
     47 H           6.4756   -1.8258   -3.2939 H       1  UNL1        0.0627
     48 H           4.4389   -0.2609   -7.5860 H       1  UNL1        0.0624
     49 H           3.3826    0.3498   -5.4133 H       1  UNL1        0.0624
     50 H           7.2545   -1.8192  -10.6830 H       1  UNL1        0.3278
     51 H           8.9560   -2.0969   -7.4624 H       1  UNL1        0.0333
     52 H           8.0216   -3.6098   -7.6007 H       1  UNL1        0.0333
     53 H           8.6945   -2.1687   -5.1594 H       1  UNL1        0.0317
     54 H           7.6970   -3.6407   -5.3031 H       1  UNL1        0.0317
@<TRIPOS>BOND
     1     1     2    1
     2     2     3    1
     3     3     4    1
     4     4     5    1
     5     5     6    1
     6     6     7    1
     7     2     7    1
     8     5     8    1
     9     8     9   ar
    10     9    10   ar
    11    10    11   ar
    12    11    12   ar
    13     8    12   ar
    14    11    13    1
    15    13    14   ar
    16    14    15   ar
    17    15    16   ar
    18    16    17   ar
    19    17    18   ar
    20    13    18   ar
    21    10    19    1
    22    19    20   ar
    23    20    21   ar
    24    21    22   ar
    25    22    23   ar
    26    23    24   ar
    27    19    24   ar
    28    22    25    1
    29    25    26    2
    30    26    27    1
    31    25    28    1
    32    28    29    1
    33    21    29    1
    34     1    30    1
    35     1    31    1
    36     1    32    1
    37     2    33    1
    38     3    34    1
    39     3    35    1
    40     4    36    1
    41     4    37    1
    42     6    38    1
    43     6    39    1
    44     7    40    1
    45     7    41    1
    46     9    42    1
    47    14    43    1
    48    15    44    1
    49    17    45    1
    50    18    46    1
    51    20    47    1
    52    23    48    1
    53    24    49    1
    54    27    50    1
    55    28    51    1
    56    28    52    1
    57    29    53    1
    58    29    54    1
@<TRIPOS>MOLECULE
mol_44587190_1
 54 58 0 0 0
SMALL
GASTEIGER

@<TRIPOS>ATOM
      1 C          -2.5047    0.0067    0.0484 C.3     1  UNL1       -0.0623
      2 C          -1.0215    0.0213    0.4234 C.3     1  UNL1       -0.0409
      3 C          -0.3412   -1.2696   -0.0711 C.3     1  UNL1       -0.0331
      4 C           1.1851   -1.1878   -0.0098 C.3     1  UNL1        0.0299
      5 N           1.5589   -0.0046   -0.7629 N.pl3   1  UNL1       -0.2554
      6 C           1.1811    1.2252   -0.0926 C.3     1  UNL1        0.0299
      7 C          -0.3483    1.2914   -0.1351 C.3     1  UNL1       -0.0331
      8 N           2.8364   -0.0343   -1.3299 N.ar    1  UNL1       -0.1879
      9 C           2.9934   -0.5349   -2.5912 C.ar    1  UNL1        0.0555
     10 C           4.2924   -0.2984   -2.9478 C.ar    1  UNL1        0.0294
     11 C           4.8601    0.3739   -1.8272 C.ar    1  UNL1        0.1023
     12 N           3.9730    0.4770   -0.8210 N.ar    1  UNL1       -0.1521
     13 C           6.2162    0.9082   -1.7537 C.ar    1  UNL1        0.0056
     14 C           7.1051    0.4752   -0.7736 C.ar    1  UNL1       -0.0343
     15 C           8.4169    0.9149   -0.8478 C.ar    1  UNL1        0.0282
     16 N           8.8841    1.7459   -1.8066 N.ar    1  UNL1       -0.2632
     17 C           7.9961    2.1709   -2.7286 C.ar    1  UNL1        0.0282
     18 C           6.6677    1.7873   -2.7435 C.ar    1  UNL1       -0.0343
     19 C           4.8629   -0.6938   -4.2146 C.ar    1  UNL1       -0.0140
     20 C           6.0287   -1.4746   -4.2233 C.ar    1  UNL1       -0.0501
     21 C           6.6015   -1.7997   -5.4401 C.ar    1  UNL1       -0.0375
     22 C           6.0177   -1.3570   -6.6202 C.ar    1  UNL1        0.0026
     23 C           4.8601   -0.5999   -6.6481 C.ar    1  UNL1       -0.0519
     24 C           4.2764   -0.2682   -5.4245 C.ar    1  UNL1       -0.0533
     25 C           6.8400   -1.8134   -7.7263 C.2     1  UNL1        0.0876
     26 N           6.5786   -1.5405   -8.9660 N.2     1  UNL1       -0.0915
     27 O           7.5477   -2.1029   -9.8028 O.2     1  UNL1       -0.4090
     28 C           8.0034   -2.6172   -7.1951 C.3     1  UNL1       -0.0027
     29 C           7.8466   -2.5927   -5.6680 C.3     1  UNL1       -0.0215
     30 H          -3.0144    0.8955    0.4333 H       1  UNL1        0.0232
     31 H          -2.6354   -0.0089   -1.0404 H       1  UNL1        0.0232
     32 H          -3.0039   -0.8777    0.4568 H       1  UNL1        0.0232
     33 H          -0.9388    0.0473    1.5175 H       1  UNL1        0.0299
     34 H          -0.6905   -2.1252    0.5190 H       1  UNL1        0.0283
     35 H          -0.6391   -1.4673   -1.1107 H       1  UNL1        0.0283
     36 H           1.5400   -1.1466    1.0278 H       1  UNL1        0.0480
     37 H           1.5961   -2.1020   -0.4557 H       1  UNL1        0.0480
     38 H           1.5470    1.2586    0.9418 H       1  UNL1        0.0480
     39 H           1.5782    2.1079   -0.6083 H       1  UNL1        0.0480
     40 H          -0.6593    1.4418   -1.1783 H       1  UNL1        0.0283
     41 H          -0.6954    2.1697    0.4221 H       1  UNL1        0.0283
     42 H           2.1664   -0.9977   -3.1096 H       1  UNL1        0.0852
     43 H           6.7953   -0.2098    0.0073 H       1  UNL1        0.0639
     44 H           9.1582    0.5890   -0.1238 H       1  UNL1        0.0830
     45 H           8.3939    2.8390   -3.4875 H       1  UNL1        0.0830
     46 H           6.0078    2.1512   -3.5242 H       1  UNL1        0.0639
     47 H           6.4838   -1.8128   -3.2961 H       1  UNL1        0.0627
     48 H           4.4306   -0.2678   -7.5873 H       1  UNL1        0.0624
     49 H           3.3748    0.3414   -5.4141 H       1  UNL1        0.0624
     50 H           7.2511   -1.8149  -10.6860 H       1  UNL1        0.3278
     51 H           8.9505   -2.1614   -7.4999 H       1  UNL1        0.0333
     52 H           7.9579   -3.6411   -7.5793 H       1  UNL1        0.0333
     53 H           8.7070   -2.1075   -5.1954 H       1  UNL1        0.0317
     54 H           7.7433   -3.6069   -5.2686 H       1  UNL1        0.0317
@<TRIPOS>BOND
     1     1     2    1
     2     2     3    1
     3     3     4    1
     4     4     5    1
     5     5     6    1
     6     6     7    1
     7     2     7    1
     8     5     8    1
     9     8     9   ar
    10     9    10   ar
    11    10    11   ar
    12    11    12   ar
    13     8    12   ar
    14    11    13    1
    15    13    14   ar
    16    14    15   ar
    17    15    16   ar
    18    16    17   ar
    19    17    18   ar
    20    13    18   ar
    21    10    19    1
    22    19    20   ar
    23    20    21   ar
    24    21    22   ar
    25    22    23   ar
    26    23    24   ar
    27    19    24   ar
    28    22    25    1
    29    25    26    2
    30    26    27    1
    31    25    28    1
    32    28    29    1
    33    21    29    1
    34     1    30    1
    35     1    31    1
    36     1    32    1
    37     2    33    1
    38     3    34    1
    39     3    35    1
    40     4    36    1
    41     4    37    1
    42     6    38    1
    43     6    39    1
    44     7    40    1
    45     7    41    1
    46     9    42    1
    47    14    43    1
    48    15    44    1
    49    17    45    1
    50    18    46    1
    51    20    47    1
    52    23    48    1
    53    24    49    1
    54    27    50    1
    55    28    51    1
    56    28    52    1
    57    29    53    1
    58    29    54    1
@<TRIPOS>MOLECULE
mol_11653652_2
 54 58 0 0 0
SMALL
GASTEIGER

@<TRIPOS>ATOM
      1 C          -2.5047    0.0067    0.0484 C.3     1  UNL1       -0.0623
      2 C          -1.0215    0.0213    0.4234 C.3     1  UNL1       -0.0409
      3 C          -0.3412   -1.2696   -0.0711 C.3     1  UNL1       -0.0331
      4 C           1.1851   -1.1878   -0.0098 C.3     1  UNL1        0.0299
      5 N           1.5589   -0.0046   -0.7629 N.pl3   1  UNL1       -0.2554
      6 C           1.1811    1.2252   -0.0926 C.3     1  UNL1        0.0299
      7 C          -0.3483    1.2914   -0.1351 C.3     1  UNL1       -0.0331
      8 N           2.8364   -0.0343   -1.3299 N.ar    1  UNL1       -0.1879
      9 C           2.9934   -0.5349   -2.5912 C.ar    1  UNL1        0.0555
     10 C           4.2924   -0.2984   -2.9478 C.ar    1  UNL1        0.0294
     11 C           4.8601    0.3739   -1.8272 C.ar    1  UNL1        0.1023
     12 N           3.9730    0.4770   -0.8210 N.ar    1  UNL1       -0.1521
     13 C           6.2162    0.9082   -1.7537 C.ar    1  UNL1        0.0056
     14 C           7.1051    0.4752   -0.7736 C.ar    1  UNL1       -0.0343
     15 C           8.4169    0.9149   -0.8478 C.ar    1  UNL1        0.0282
     16 N           8.8841    1.7459   -1.8066 N.ar    1  UNL1       -0.2632
     17 C           7.9961    2.1709   -2.7286 C.ar    1  UNL1        0.0282
     18 C           6.6677    1.7873   -2.7435 C.ar    1  UNL1       -0.0343
     19 C           4.8629   -0.6938   -4.2146 C.ar    1  UNL1       -0.0140
     20 C           6.0287   -1.4746   -4.2233 C.ar    1  UNL1       -0.0501
     21 C           6.6015   -1.7997   -5.4401 C.ar    1  UNL1       -0.0375
     22 C           6.0177   -1.3570   -6.6202 C.ar    1  UNL1        0.0026
     23 C           4.8601   -0.5999   -6.6481 C.ar    1  UNL1       -0.0519
     24 C           4.2764   -0.2682   -5.4245 C.ar    1  UNL1       -0.0533
     25 C           6.8400   -1.8134   -7.7263 C.2     1  UNL1        0.0876
     26 N           6.5786   -1.5405   -8.9660 N.2     1  UNL1       -0.0915
     27 O           7.5477   -2.1029   -9.8028 O.2     1  UNL1       -0.4090
     28 C           8.0034   -2.6172   -7.1951 C.3     1  UNL1       -0.0027
     29 C           7.8466   -2.5927   -5.6680 C.3     1  UNL1       -0.0215
     30 H          -3.0144    0.8955    0.4333 H       1  UNL1        0.0232
     31 H          -2.6354   -0.0089   -1.0404 H       1  UNL1        0.0232
     32 H          -3.0039   -0.8777    0.4568 H       1  UNL1        0.0232
     33 H          -0.9388    0.0473    1.5175 H       1  UNL1        0.0299
     34 H          -0.6905   -2.1252    0.5190 H       1  UNL1        0.0283
     35 H          -0.6391   -1.4673   -1.1107 H       1  UNL1        0.0283
     36 H           1.5400   -1.1466    1.0278 H       1  UNL1        0.0480
     37 H           1.5961   -2.1020   -0.4557 H       1  UNL1        0.0480
     38 H           1.5470    1.2586    0.9418 H       1  UNL1        0.0480
     39 H           1.5782    2.1079   -0.6083 H       1  UNL1        0.0480
     40 H          -0.6593    1.4418   -1.1783 H       1  UNL1        0.0283
     41 H          -0.6954    2.1697    0.4221 H       1  UNL1        0.0283
     42 H           2.1664   -0.9977   -3.1096 H       1  UNL1        0.0852
     43 H           6.7953   -0.2098    0.0073 H       1  UNL1        0.0639
     44 H           9.1582    0.5890   -0.1238 H       1  UNL1        0.0830
     45 H           8.3939    2.8390   -3.4875 H       1  UNL1        0.0830
     46 H           6.0078    2.1512   -3.5242 H       1  UNL1        0.0639
     47 H           6.4838   -1.8128   -3.2961 H       1  UNL1        0.0627
     48 H           4.4306   -0.2678   -7.5873 H       1  UNL1        0.0624
     49 H           3.3748    0.3414   -5.4141 H       1  UNL1        0.0624
     50 H           7.2511   -1.8149  -10.6860 H       1  UNL1        0.3278
     51 H           8.9505   -2.1614   -7.4999 H       1  UNL1        0.0333
     52 H           7.9579   -3.6411   -7.5793 H       1  UNL1        0.0333
     53 H           8.7070   -2.1075   -5.1954 H       1  UNL1        0.0317
     54 H           7.7433   -3.6069   -5.2686 H       1  UNL1        0.0317
@<TRIPOS>BOND
     1     1     2    1
     2     2     3    1
     3     3     4    1
     4     4     5    1
     5     5     6    1
     6     6     7    1
     7     2     7    1
     8     5     8    1
     9     8     9   ar
    10     9    10   ar
    11    10    11   ar
    12    11    12   ar
    13     8    12   ar
    14    11    13    1
    15    13    14   ar
    16    14    15   ar
    17    15    16   ar
    18    16    17   ar
    19    17    18   ar
    20    13    18   ar
    21    10    19    1
    22    19    20   ar
    23    20    21   ar
    24    21    22   ar
    25    22    23   ar
    26    23    24   ar
    27    19    24   ar
    28    22    25    1
    29    25    26    2
    30    26    27    1
    31    25    28    1
    32    28    29    1
    33    21    29    1
    34     1    30    1
    35     1    31    1
    36     1    32    1
    37     2    33    1
    38     3    34    1
    39     3    35    1
    40     4    36    1
    41     4    37    1
    42     6    38    1
    43     6    39    1
    44     7    40    1
    45     7    41    1
    46     9    42    1
    47    14    43    1
    48    15    44    1
    49    17    45    1
    50    18    46    1
    51    20    47    1
    52    23    48    1
    53    24    49    1
    54    27    50    1
    55    28    51    1
    56    28    52    1
    57    29    53    1
    58    29    54    1
@<TRIPOS>MOLECULE
mol_139592319_3
 54 58 0 0 0
SMALL
GASTEIGER

@<TRIPOS>ATOM
      1 C          -2.5047    0.0067    0.0484 C.3     1  UNL1       -0.0623
      2 C          -1.0215    0.0213    0.4234 C.3     1  UNL1       -0.0409
      3 C          -0.3412   -1.2696   -0.0711 C.3     1  UNL1       -0.0331
      4 C           1.1851   -1.1878   -0.0098 C.3     1  UNL1        0.0299
      5 N           1.5589   -0.0046   -0.7629 N.pl3   1  UNL1       -0.2554
      6 C           1.1811    1.2252   -0.0926 C.3     1  UNL1        0.0299
      7 C          -0.3483    1.2914   -0.1351 C.3     1  UNL1       -0.0331
      8 N           2.8364   -0.0343   -1.3299 N.ar    1  UNL1       -0.1879
      9 C           2.9934   -0.5349   -2.5912 C.ar    1  UNL1        0.0555
     10 C           4.2924   -0.2984   -2.9478 C.ar    1  UNL1        0.0294
     11 C           4.8601    0.3739   -1.8272 C.ar    1  UNL1        0.1023
     12 N           3.9730    0.4770   -0.8210 N.ar    1  UNL1       -0.1521
     13 C           6.2162    0.9082   -1.7537 C.ar    1  UNL1        0.0056
     14 C           7.1051    0.4752   -0.7736 C.ar    1  UNL1       -0.0343
     15 C           8.4169    0.9149   -0.8478 C.ar    1  UNL1        0.0282
     16 N           8.8841    1.7459   -1.8066 N.ar    1  UNL1       -0.2632
     17 C           7.9961    2.1709   -2.7286 C.ar    1  UNL1        0.0282
     18 C           6.6677    1.7873   -2.7435 C.ar    1  UNL1       -0.0343
     19 C           4.8629   -0.6938   -4.2146 C.ar    1  UNL1       -0.0140
     20 C           6.0287   -1.4746   -4.2233 C.ar    1  UNL1       -0.0501
     21 C           6.6015   -1.7997   -5.4401 C.ar    1  UNL1       -0.0375
     22 C           6.0177   -1.3570   -6.6202 C.ar    1  UNL1        0.0026
     23 C           4.8601   -0.5999   -6.6481 C.ar    1  UNL1       -0.0519
     24 C           4.2764   -0.2682   -5.4245 C.ar    1  UNL1       -0.0533
     25 C           6.8400   -1.8134   -7.7263 C.2     1  UNL1        0.0876
     26 N           6.5786   -1.5405   -8.9660 N.2     1  UNL1       -0.0915
     27 O           7.5477   -2.1029   -9.8028 O.2     1  UNL1       -0.4090
     28 C           8.0034   -2.6172   -7.1951 C.3     1  UNL1       -0.0027
     29 C           7.8466   -2.5927   -5.6680 C.3     1  UNL1       -0.0215
     30 H          -3.0144    0.8955    0.4333 H       1  UNL1        0.0232
     31 H          -2.6354   -0.0089   -1.0404 H       1  UNL1        0.0232
     32 H          -3.0039   -0.8777    0.4568 H       1  UNL1        0.0232
     33 H          -0.9388    0.0473    1.5175 H       1  UNL1        0.0299
     34 H          -0.6905   -2.1252    0.5190 H       1  UNL1        0.0283
     35 H          -0.6391   -1.4673   -1.1107 H       1  UNL1        0.0283
     36 H           1.5400   -1.1466    1.0278 H       1  UNL1        0.0480
     37 H           1.5961   -2.1020   -0.4557 H       1  UNL1        0.0480
     38 H           1.5470    1.2586    0.9418 H       1  UNL1        0.0480
     39 H           1.5782    2.1079   -0.6083 H       1  UNL1        0.0480
     40 H          -0.6593    1.4418   -1.1783 H       1  UNL1        0.0283
     41 H          -0.6954    2.1697    0.4221 H       1  UNL1        0.0283
     42 H           2.1664   -0.9977   -3.1096 H       1  UNL1        0.0852
     43 H           6.7953   -0.2098    0.0073 H       1  UNL1        0.0639
     44 H           9.1582    0.5890   -0.1238 H       1  UNL1        0.0830
     45 H           8.3939    2.8390   -3.4875 H       1  UNL1        0.0830
     46 H           6.0078    2.1512   -3.5242 H       1  UNL1        0.0639
     47 H           6.4838   -1.8128   -3.2961 H       1  UNL1        0.0627
     48 H           4.4306   -0.2678   -7.5873 H       1  UNL1        0.0624
     49 H           3.3748    0.3414   -5.4141 H       1  UNL1        0.0624
     50 H           7.2511   -1.8149  -10.6860 H       1  UNL1        0.3278
     51 H           8.9505   -2.1614   -7.4999 H       1  UNL1        0.0333
     52 H           7.9579   -3.6411   -7.5793 H       1  UNL1        0.0333
     53 H           8.7070   -2.1075   -5.1954 H       1  UNL1        0.0317
     54 H           7.7433   -3.6069   -5.2686 H       1  UNL1        0.0317
@<TRIPOS>BOND
     1     1     2    1
     2     2     3    1
     3     3     4    1
     4     4     5    1
     5     5     6    1
     6     6     7    1
     7     2     7    1
     8     5     8    1
     9     8     9   ar
    10     9    10   ar
    11    10    11   ar
    12    11    12   ar
    13     8    12   ar
    14    11    13    1
    15    13    14   ar
    16    14    15   ar
    17    15    16   ar
    18    16    17   ar
    19    17    18   ar
    20    13    18   ar
    21    10    19    1
    22    19    20   ar
    23    20    21   ar
    24    21    22   ar
    25    22    23   ar
    26    23    24   ar
    27    19    24   ar
    28    22    25    1
    29    25    26    2
    30    26    27    1
    31    25    28    1
    32    28    29    1
    33    21    29    1
    34     1    30    1
    35     1    31    1
    36     1    32    1
    37     2    33    1
    38     3    34    1
    39     3    35    1
    40     4    36    1
    41     4    37    1
    42     6    38    1
    43     6    39    1
    44     7    40    1
    45     7    41    1
    46     9    42    1
    47    14    43    1
    48    15    44    1
    49    17    45    1
    50    18    46    1
    51    20    47    1
    52    23    48    1
    53    24    49    1
    54    27    50    1
    55    28    51    1
    56    28    52    1
    57    29    53    1
    58    29    54    1
@<TRIPOS>MOLECULE
mol_135927350_4
 54 58 0 0 0
SMALL
GASTEIGER

@<TRIPOS>ATOM
      1 C          -2.5047    0.0067    0.0484 C.3     1  UNL1       -0.0623
      2 C          -1.0215    0.0213    0.4234 C.3     1  UNL1       -0.0409
      3 C          -0.3412   -1.2696   -0.0711 C.3     1  UNL1       -0.0331
      4 C           1.1851   -1.1878   -0.0098 C.3     1  UNL1        0.0299
      5 N           1.5589   -0.0046   -0.7629 N.pl3   1  UNL1       -0.2554
      6 C           1.1811    1.2252   -0.0926 C.3     1  UNL1        0.0299
      7 C          -0.3483    1.2914   -0.1351 C.3     1  UNL1       -0.0331
      8 N           2.8364   -0.0343   -1.3299 N.ar    1  UNL1       -0.1879
      9 C           2.9934   -0.5349   -2.5912 C.ar    1  UNL1        0.0555
     10 C           4.2924   -0.2984   -2.9478 C.ar    1  UNL1        0.0294
     11 C           4.8601    0.3739   -1.8272 C.ar    1  UNL1        0.1023
     12 N           3.9730    0.4770   -0.8210 N.ar    1  UNL1       -0.1521
     13 C           6.2162    0.9082   -1.7537 C.ar    1  UNL1        0.0056
     14 C           7.1051    0.4752   -0.7736 C.ar    1  UNL1       -0.0343
     15 C           8.4169    0.9149   -0.8478 C.ar    1  UNL1        0.0282
     16 N           8.8841    1.7459   -1.8066 N.ar    1  UNL1       -0.2632
     17 C           7.9961    2.1709   -2.7286 C.ar    1  UNL1        0.0282
     18 C           6.6677    1.7873   -2.7435 C.ar    1  UNL1       -0.0343
     19 C           4.8629   -0.6938   -4.2146 C.ar    1  UNL1       -0.0140
     20 C           6.0287   -1.4746   -4.2233 C.ar    1  UNL1       -0.0501
     21 C           6.6015   -1.7997   -5.4401 C.ar    1  UNL1       -0.0375
     22 C           6.0177   -1.3570   -6.6202 C.ar    1  UNL1        0.0026
     23 C           4.8601   -0.5999   -6.6481 C.ar    1  UNL1       -0.0519
     24 C           4.2764   -0.2682   -5.4245 C.ar    1  UNL1       -0.0533
     25 C           6.8400   -1.8134   -7.7263 C.2     1  UNL1        0.0876
     26 N           6.5786   -1.5405   -8.9660 N.2     1  UNL1       -0.0915
     27 O           7.5477   -2.1029   -9.8028 O.2     1  UNL1       -0.4090
     28 C           8.0034   -2.6172   -7.1951 C.3     1  UNL1       -0.0027
     29 C           7.8466   -2.5927   -5.6680 C.3     1  UNL1       -0.0215
     30 H          -3.0144    0.8955    0.4333 H       1  UNL1        0.0232
     31 H          -2.6354   -0.0089   -1.0404 H       1  UNL1        0.0232
     32 H          -3.0039   -0.8777    0.4568 H       1  UNL1        0.0232
     33 H          -0.9388    0.0473    1.5175 H       1  UNL1        0.0299
     34 H          -0.6905   -2.1252    0.5190 H       1  UNL1        0.0283
     35 H          -0.6391   -1.4673   -1.1107 H       1  UNL1        0.0283
     36 H           1.5400   -1.1466    1.0278 H       1  UNL1        0.0480
     37 H           1.5961   -2.1020   -0.4557 H       1  UNL1        0.0480
     38 H           1.5470    1.2586    0.9418 H       1  UNL1        0.0480
     39 H           1.5782    2.1079   -0.6083 H       1  UNL1        0.0480
     40 H          -0.6593    1.4418   -1.1783 H       1  UNL1        0.0283
     41 H          -0.6954    2.1697    0.4221 H       1  UNL1        0.0283
     42 H           2.1664   -0.9977   -3.1096 H       1  UNL1        0.0852
     43 H           6.7953   -0.2098    0.0073 H       1  UNL1        0.0639
     44 H           9.1582    0.5890   -0.1238 H       1  UNL1        0.0830
     45 H           8.3939    2.8390   -3.4875 H       1  UNL1        0.0830
     46 H           6.0078    2.1512   -3.5242 H       1  UNL1        0.0639
     47 H           6.4838   -1.8128   -3.2961 H       1  UNL1        0.0627
     48 H           4.4306   -0.2678   -7.5873 H       1  UNL1        0.0624
     49 H           3.3748    0.3414   -5.4141 H       1  UNL1        0.0624
     50 H           7.2511   -1.8149  -10.6860 H       1  UNL1        0.3278
     51 H           8.9505   -2.1614   -7.4999 H       1  UNL1        0.0333
     52 H           7.9579   -3.6411   -7.5793 H       1  UNL1        0.0333
     53 H           8.7070   -2.1075   -5.1954 H       1  UNL1        0.0317
     54 H           7.7433   -3.6069   -5.2686 H       1  UNL1        0.0317
@<TRIPOS>BOND
     1     1     2    1
     2     2     3    1
     3     3     4    1
     4     4     5    1
     5     5     6    1
     6     6     7    1
     7     2     7    1
     8     5     8    1
     9     8     9   ar
    10     9    10   ar
    11    10    11   ar
    12    11    12   ar
    13     8    12   ar
    14    11    13    1
    15    13    14   ar
    16    14    15   ar
    17    15    16   ar
    18    16    17   ar
    19    17    18   ar
    20    13    18   ar
    21    10    19    1
    22    19    20   ar
    23    20    21   ar
    24    21    22   ar
    25    22    23   ar
    26    23    24   ar
    27    19    24   ar
    28    22    25    1
    29    25    26    2
    30    26    27    1
    31    25    28    1
    32    28    29    1
    33    21    29    1
    34     1    30    1
    35     1    31    1
    36     1    32    1
    37     2    33    1
    38     3    34    1
    39     3    35    1
    40     4    36    1
    41     4    37    1
    42     6    38    1
    43     6    39    1
    44     7    40    1
    45     7    41    1
    46     9    42    1
    47    14    43    1
    48    15    44    1
    49    17    45    1
    50    18    46    1
    51    20    47    1
    52    23    48    1
    53    24    49    1
    54    27    50    1
    55    28    51    1
    56    28    52    1
    57    29    53    1
    58    29    54    1
@<TRIPOS>MOLECULE
mol_91896025_5
 54 58 0 0 0
SMALL
GASTEIGER

@<TRIPOS>ATOM
      1 C          -2.5047    0.0067    0.0484 C.3     1  UNL1       -0.0623
      2 C          -1.0215    0.0213    0.4234 C.3     1  UNL1       -0.0409
      3 C          -0.3412   -1.2696   -0.0711 C.3     1  UNL1       -0.0331
      4 C           1.1851   -1.1878   -0.0098 C.3     1  UNL1        0.0299
      5 N           1.5589   -0.0046   -0.7629 N.pl3   1  UNL1       -0.2554
      6 C           1.1811    1.2252   -0.0926 C.3     1  UNL1        0.0299
      7 C          -0.3483    1.2914   -0.1351 C.3     1  UNL1       -0.0331
      8 N           2.8364   -0.0343   -1.3299 N.ar    1  UNL1       -0.1879
      9 C           2.9934   -0.5349   -2.5912 C.ar    1  UNL1        0.0555
     10 C           4.2924   -0.2984   -2.9478 C.ar    1  UNL1        0.0294
     11 C           4.8601    0.3739   -1.8272 C.ar    1  UNL1        0.1023
     12 N           3.9730    0.4770   -0.8210 N.ar    1  UNL1       -0.1521
     13 C           6.2162    0.9082   -1.7537 C.ar    1  UNL1        0.0056
     14 C           7.1051    0.4752   -0.7736 C.ar    1  UNL1       -0.0343
     15 C           8.4169    0.9149   -0.8478 C.ar    1  UNL1        0.0282
     16 N           8.8841    1.7459   -1.8066 N.ar    1  UNL1       -0.2632
     17 C           7.9961    2.1709   -2.7286 C.ar    1  UNL1        0.0282
     18 C           6.6677    1.7873   -2.7435 C.ar    1  UNL1       -0.0343
     19 C           4.8629   -0.6938   -4.2146 C.ar    1  UNL1       -0.0140
     20 C           6.0287   -1.4746   -4.2233 C.ar    1  UNL1       -0.0501
     21 C           6.6015   -1.7997   -5.4401 C.ar    1  UNL1       -0.0375
     22 C           6.0177   -1.3570   -6.6202 C.ar    1  UNL1        0.0026
     23 C           4.8601   -0.5999   -6.6481 C.ar    1  UNL1       -0.0519
     24 C           4.2764   -0.2682   -5.4245 C.ar    1  UNL1       -0.0533
     25 C           6.8400   -1.8134   -7.7263 C.2     1  UNL1        0.0876
     26 N           6.5786   -1.5405   -8.9660 N.2     1  UNL1       -0.0915
     27 O           7.5477   -2.1029   -9.8028 O.2     1  UNL1       -0.4090
     28 C           8.0034   -2.6172   -7.1951 C.3     1  UNL1       -0.0027
     29 C           7.8466   -2.5927   -5.6680 C.3     1  UNL1       -0.0215
     30 H          -3.0144    0.8955    0.4333 H       1  UNL1        0.0232
     31 H          -2.6354   -0.0089   -1.0404 H       1  UNL1        0.0232
     32 H          -3.0039   -0.8777    0.4568 H       1  UNL1        0.0232
     33 H          -0.9388    0.0473    1.5175 H       1  UNL1        0.0299
     34 H          -0.6905   -2.1252    0.5190 H       1  UNL1        0.0283
     35 H          -0.6391   -1.4673   -1.1107 H       1  UNL1        0.0283
     36 H           1.5400   -1.1466    1.0278 H       1  UNL1        0.0480
     37 H           1.5961   -2.1020   -0.4557 H       1  UNL1        0.0480
     38 H           1.5470    1.2586    0.9418 H       1  UNL1        0.0480
     39 H           1.5782    2.1079   -0.6083 H       1  UNL1        0.0480
     40 H          -0.6593    1.4418   -1.1783 H       1  UNL1        0.0283
     41 H          -0.6954    2.1697    0.4221 H       1  UNL1        0.0283
     42 H           2.1664   -0.9977   -3.1096 H       1  UNL1        0.0852
     43 H           6.7953   -0.2098    0.0073 H       1  UNL1        0.0639
     44 H           9.1582    0.5890   -0.1238 H       1  UNL1        0.0830
     45 H           8.3939    2.8390   -3.4875 H       1  UNL1        0.0830
     46 H           6.0078    2.1512   -3.5242 H       1  UNL1        0.0639
     47 H           6.4838   -1.8128   -3.2961 H       1  UNL1        0.0627
     48 H           4.4306   -0.2678   -7.5873 H       1  UNL1        0.0624
     49 H           3.3748    0.3414   -5.4141 H       1  UNL1        0.0624
     50 H           7.2511   -1.8149  -10.6860 H       1  UNL1        0.3278
     51 H           8.9505   -2.1614   -7.4999 H       1  UNL1        0.0333
     52 H           7.9579   -3.6411   -7.5793 H       1  UNL1        0.0333
     53 H           8.7070   -2.1075   -5.1954 H       1  UNL1        0.0317
     54 H           7.7433   -3.6069   -5.2686 H       1  UNL1        0.0317
@<TRIPOS>BOND
     1     1     2    1
     2     2     3    1
     3     3     4    1
     4     4     5    1
     5     5     6    1
     6     6     7    1
     7     2     7    1
     8     5     8    1
     9     8     9   ar
    10     9    10   ar
    11    10    11   ar
    12    11    12   ar
    13     8    12   ar
    14    11    13    1
    15    13    14   ar
    16    14    15   ar
    17    15    16   ar
    18    16    17   ar
    19    17    18   ar
    20    13    18   ar
    21    10    19    1
    22    19    20   ar
    23    20    21   ar
    24    21    22   ar
    25    22    23   ar
    26    23    24   ar
    27    19    24   ar
    28    22    25    1
    29    25    26    2
    30    26    27    1
    31    25    28    1
    32    28    29    1
    33    21    29    1
    34     1    30    1
    35     1    31    1
    36     1    32    1
    37     2    33    1
    38     3    34    1
    39     3    35    1
    40     4    36    1
    41     4    37    1
    42     6    38    1
    43     6    39    1
    44     7    40    1
    45     7    41    1
    46     9    42    1
    47    14    43    1
    48    15    44    1
    49    17    45    1
    50    18    46    1
    51    20    47    1
    52    23    48    1
    53    24    49    1
    54    27    50    1
    55    28    51    1
    56    28    52    1
    57    29    53    1
    58    29    54    1
@<TRIPOS>MOLECULE
mol_91896028_6
 54 58 0 0 0
SMALL
GASTEIGER

@<TRIPOS>ATOM
      1 C          -2.5047    0.0067    0.0484 C.3     1  UNL1       -0.0623
      2 C          -1.0215    0.0213    0.4234 C.3     1  UNL1       -0.0409
      3 C          -0.3412   -1.2696   -0.0711 C.3     1  UNL1       -0.0331
      4 C           1.1851   -1.1878   -0.0098 C.3     1  UNL1        0.0299
      5 N           1.5589   -0.0046   -0.7629 N.pl3   1  UNL1       -0.2554
      6 C           1.1811    1.2252   -0.0926 C.3     1  UNL1        0.0299
      7 C          -0.3483    1.2914   -0.1351 C.3     1  UNL1       -0.0331
      8 N           2.8364   -0.0343   -1.3299 N.ar    1  UNL1       -0.1879
      9 C           2.9934   -0.5349   -2.5912 C.ar    1  UNL1        0.0555
     10 C           4.2924   -0.2984   -2.9478 C.ar    1  UNL1        0.0294
     11 C           4.8601    0.3739   -1.8272 C.ar    1  UNL1        0.1023
     12 N           3.9730    0.4770   -0.8210 N.ar    1  UNL1       -0.1521
     13 C           6.2162    0.9082   -1.7537 C.ar    1  UNL1        0.0056
     14 C           7.1051    0.4752   -0.7736 C.ar    1  UNL1       -0.0343
     15 C           8.4169    0.9149   -0.8478 C.ar    1  UNL1        0.0282
     16 N           8.8841    1.7459   -1.8066 N.ar    1  UNL1       -0.2632
     17 C           7.9961    2.1709   -2.7286 C.ar    1  UNL1        0.0282
     18 C           6.6677    1.7873   -2.7435 C.ar    1  UNL1       -0.0343
     19 C           4.8629   -0.6938   -4.2146 C.ar    1  UNL1       -0.0140
     20 C           6.0287   -1.4746   -4.2233 C.ar    1  UNL1       -0.0501
     21 C           6.6015   -1.7997   -5.4401 C.ar    1  UNL1       -0.0375
     22 C           6.0177   -1.3570   -6.6202 C.ar    1  UNL1        0.0026
     23 C           4.8601   -0.5999   -6.6481 C.ar    1  UNL1       -0.0519
     24 C           4.2764   -0.2682   -5.4245 C.ar    1  UNL1       -0.0533
     25 C           6.8400   -1.8134   -7.7263 C.2     1  UNL1        0.0876
     26 N           6.5786   -1.5405   -8.9660 N.2     1  UNL1       -0.0915
     27 O           7.5477   -2.1029   -9.8028 O.2     1  UNL1       -0.4090
     28 C           8.0034   -2.6172   -7.1951 C.3     1  UNL1       -0.0027
     29 C           7.8466   -2.5927   -5.6680 C.3     1  UNL1       -0.0215
     30 H          -3.0144    0.8955    0.4333 H       1  UNL1        0.0232
     31 H          -2.6354   -0.0089   -1.0404 H       1  UNL1        0.0232
     32 H          -3.0039   -0.8777    0.4568 H       1  UNL1        0.0232
     33 H          -0.9388    0.0473    1.5175 H       1  UNL1        0.0299
     34 H          -0.6905   -2.1252    0.5190 H       1  UNL1        0.0283
     35 H          -0.6391   -1.4673   -1.1107 H       1  UNL1        0.0283
     36 H           1.5400   -1.1466    1.0278 H       1  UNL1        0.0480
     37 H           1.5961   -2.1020   -0.4557 H       1  UNL1        0.0480
     38 H           1.5470    1.2586    0.9418 H       1  UNL1        0.0480
     39 H           1.5782    2.1079   -0.6083 H       1  UNL1        0.0480
     40 H          -0.6593    1.4418   -1.1783 H       1  UNL1        0.0283
     41 H          -0.6954    2.1697    0.4221 H       1  UNL1        0.0283
     42 H           2.1664   -0.9977   -3.1096 H       1  UNL1        0.0852
     43 H           6.7953   -0.2098    0.0073 H       1  UNL1        0.0639
     44 H           9.1582    0.5890   -0.1238 H       1  UNL1        0.0830
     45 H           8.3939    2.8390   -3.4875 H       1  UNL1        0.0830
     46 H           6.0078    2.1512   -3.5242 H       1  UNL1        0.0639
     47 H           6.4838   -1.8128   -3.2961 H       1  UNL1        0.0627
     48 H           4.4306   -0.2678   -7.5873 H       1  UNL1        0.0624
     49 H           3.3748    0.3414   -5.4141 H       1  UNL1        0.0624
     50 H           7.2511   -1.8149  -10.6860 H       1  UNL1        0.3278
     51 H           8.9505   -2.1614   -7.4999 H       1  UNL1        0.0333
     52 H           7.9579   -3.6411   -7.5793 H       1  UNL1        0.0333
     53 H           8.7070   -2.1075   -5.1954 H       1  UNL1        0.0317
     54 H           7.7433   -3.6069   -5.2686 H       1  UNL1        0.0317
@<TRIPOS>BOND
     1     1     2    1
     2     2     3    1
     3     3     4    1
     4     4     5    1
     5     5     6    1
     6     6     7    1
     7     2     7    1
     8     5     8    1
     9     8     9   ar
    10     9    10   ar
    11    10    11   ar
    12    11    12   ar
    13     8    12   ar
    14    11    13    1
    15    13    14   ar
    16    14    15   ar
    17    15    16   ar
    18    16    17   ar
    19    17    18   ar
    20    13    18   ar
    21    10    19    1
    22    19    20   ar
    23    20    21   ar
    24    21    22   ar
    25    22    23   ar
    26    23    24   ar
    27    19    24   ar
    28    22    25    1
    29    25    26    2
    30    26    27    1
    31    25    28    1
    32    28    29    1
    33    21    29    1
    34     1    30    1
    35     1    31    1
    36     1    32    1
    37     2    33    1
    38     3    34    1
    39     3    35    1
    40     4    36    1
    41     4    37    1
    42     6    38    1
    43     6    39    1
    44     7    40    1
    45     7    41    1
    46     9    42    1
    47    14    43    1
    48    15    44    1
    49    17    45    1
    50    18    46    1
    51    20    47    1
    52    23    48    1
    53    24    49    1
    54    27    50    1
    55    28    51    1
    56    28    52    1
    57    29    53    1
    58    29    54    1
@<TRIPOS>MOLECULE
mol_11624965_7
 54 58 0 0 0
SMALL
GASTEIGER

@<TRIPOS>ATOM
      1 C          -2.5047    0.0067    0.0484 C.3     1  UNL1       -0.0623
      2 C          -1.0215    0.0213    0.4234 C.3     1  UNL1       -0.0409
      3 C          -0.3412   -1.2696   -0.0711 C.3     1  UNL1       -0.0331
      4 C           1.1851   -1.1878   -0.0098 C.3     1  UNL1        0.0299
      5 N           1.5589   -0.0046   -0.7629 N.pl3   1  UNL1       -0.2554
      6 C           1.1811    1.2252   -0.0926 C.3     1  UNL1        0.0299
      7 C          -0.3483    1.2914   -0.1351 C.3     1  UNL1       -0.0331
      8 N           2.8364   -0.0343   -1.3299 N.ar    1  UNL1       -0.1879
      9 C           2.9934   -0.5349   -2.5912 C.ar    1  UNL1        0.0555
     10 C           4.2924   -0.2984   -2.9478 C.ar    1  UNL1        0.0294
     11 C           4.8601    0.3739   -1.8272 C.ar    1  UNL1        0.1023
     12 N           3.9730    0.4770   -0.8210 N.ar    1  UNL1       -0.1521
     13 C           6.2162    0.9082   -1.7537 C.ar    1  UNL1        0.0056
     14 C           7.1051    0.4752   -0.7736 C.ar    1  UNL1       -0.0343
     15 C           8.4169    0.9149   -0.8478 C.ar    1  UNL1        0.0282
     16 N           8.8841    1.7459   -1.8066 N.ar    1  UNL1       -0.2632
     17 C           7.9961    2.1709   -2.7286 C.ar    1  UNL1        0.0282
     18 C           6.6677    1.7873   -2.7435 C.ar    1  UNL1       -0.0343
     19 C           4.8629   -0.6938   -4.2146 C.ar    1  UNL1       -0.0140
     20 C           6.0287   -1.4746   -4.2233 C.ar    1  UNL1       -0.0501
     21 C           6.6015   -1.7997   -5.4401 C.ar    1  UNL1       -0.0375
     22 C           6.0177   -1.3570   -6.6202 C.ar    1  UNL1        0.0026
     23 C           4.8601   -0.5999   -6.6481 C.ar    1  UNL1       -0.0519
     24 C           4.2764   -0.2682   -5.4245 C.ar    1  UNL1       -0.0533
     25 C           6.8400   -1.8134   -7.7263 C.2     1  UNL1        0.0876
     26 N           6.5786   -1.5405   -8.9660 N.2     1  UNL1       -0.0915
     27 O           7.5477   -2.1029   -9.8028 O.2     1  UNL1       -0.4090
     28 C           8.0034   -2.6172   -7.1951 C.3     1  UNL1       -0.0027
     29 C           7.8466   -2.5927   -5.6680 C.3     1  UNL1       -0.0215
     30 H          -3.0144    0.8955    0.4333 H       1  UNL1        0.0232
     31 H          -2.6354   -0.0089   -1.0404 H       1  UNL1        0.0232
     32 H          -3.0039   -0.8777    0.4568 H       1  UNL1        0.0232
     33 H          -0.9388    0.0473    1.5175 H       1  UNL1        0.0299
     34 H          -0.6905   -2.1252    0.5190 H       1  UNL1        0.0283
     35 H          -0.6391   -1.4673   -1.1107 H       1  UNL1        0.0283
     36 H           1.5400   -1.1466    1.0278 H       1  UNL1        0.0480
     37 H           1.5961   -2.1020   -0.4557 H       1  UNL1        0.0480
     38 H           1.5470    1.2586    0.9418 H       1  UNL1        0.0480
     39 H           1.5782    2.1079   -0.6083 H       1  UNL1        0.0480
     40 H          -0.6593    1.4418   -1.1783 H       1  UNL1        0.0283
     41 H          -0.6954    2.1697    0.4221 H       1  UNL1        0.0283
     42 H           2.1664   -0.9977   -3.1096 H       1  UNL1        0.0852
     43 H           6.7953   -0.2098    0.0073 H       1  UNL1        0.0639
     44 H           9.1582    0.5890   -0.1238 H       1  UNL1        0.0830
     45 H           8.3939    2.8390   -3.4875 H       1  UNL1        0.0830
     46 H           6.0078    2.1512   -3.5242 H       1  UNL1        0.0639
     47 H           6.4838   -1.8128   -3.2961 H       1  UNL1        0.0627
     48 H           4.4306   -0.2678   -7.5873 H       1  UNL1        0.0624
     49 H           3.3748    0.3414   -5.4141 H       1  UNL1        0.0624
     50 H           7.2511   -1.8149  -10.6860 H       1  UNL1        0.3278
     51 H           8.9505   -2.1614   -7.4999 H       1  UNL1        0.0333
     52 H           7.9579   -3.6411   -7.5793 H       1  UNL1        0.0333
     53 H           8.7070   -2.1075   -5.1954 H       1  UNL1        0.0317
     54 H           7.7433   -3.6069   -5.2686 H       1  UNL1        0.0317
@<TRIPOS>BOND
     1     1     2    1
     2     2     3    1
     3     3     4    1
     4     4     5    1
     5     5     6    1
     6     6     7    1
     7     2     7    1
     8     5     8    1
     9     8     9   ar
    10     9    10   ar
    11    10    11   ar
    12    11    12   ar
    13     8    12   ar
    14    11    13    1
    15    13    14   ar
    16    14    15   ar
    17    15    16   ar
    18    16    17   ar
    19    17    18   ar
    20    13    18   ar
    21    10    19    1
    22    19    20   ar
    23    20    21   ar
    24    21    22   ar
    25    22    23   ar
    26    23    24   ar
    27    19    24   ar
    28    22    25    1
    29    25    26    2
    30    26    27    1
    31    25    28    1
    32    28    29    1
    33    21    29    1
    34     1    30    1
    35     1    31    1
    36     1    32    1
    37     2    33    1
    38     3    34    1
    39     3    35    1
    40     4    36    1
    41     4    37    1
    42     6    38    1
    43     6    39    1
    44     7    40    1
    45     7    41    1
    46     9    42    1
    47    14    43    1
    48    15    44    1
    49    17    45    1
    50    18    46    1
    51    20    47    1
    52    23    48    1
    53    24    49    1
    54    27    50    1
    55    28    51    1
    56    28    52    1
    57    29    53    1
    58    29    54    1
@<TRIPOS>MOLECULE
mol_54586539_8
 54 58 0 0 0
SMALL
GASTEIGER

@<TRIPOS>ATOM
      1 C          -2.5047    0.0067    0.0484 C.3     1  UNL1       -0.0623
      2 C          -1.0215    0.0213    0.4234 C.3     1  UNL1       -0.0409
      3 C          -0.3412   -1.2696   -0.0711 C.3     1  UNL1       -0.0331
      4 C           1.1851   -1.1878   -0.0098 C.3     1  UNL1        0.0299
      5 N           1.5589   -0.0046   -0.7629 N.pl3   1  UNL1       -0.2554
      6 C           1.1811    1.2252   -0.0926 C.3     1  UNL1        0.0299
      7 C          -0.3483    1.2914   -0.1351 C.3     1  UNL1       -0.0331
      8 N           2.8364   -0.0343   -1.3299 N.ar    1  UNL1       -0.1879
      9 C           2.9934   -0.5349   -2.5912 C.ar    1  UNL1        0.0555
     10 C           4.2924   -0.2984   -2.9478 C.ar    1  UNL1        0.0294
     11 C           4.8601    0.3739   -1.8272 C.ar    1  UNL1        0.1023
     12 N           3.9730    0.4770   -0.8210 N.ar    1  UNL1       -0.1521
     13 C           6.2162    0.9082   -1.7537 C.ar    1  UNL1        0.0056
     14 C           7.1051    0.4752   -0.7736 C.ar    1  UNL1       -0.0343
     15 C           8.4169    0.9149   -0.8478 C.ar    1  UNL1        0.0282
     16 N           8.8841    1.7459   -1.8066 N.ar    1  UNL1       -0.2632
     17 C           7.9961    2.1709   -2.7286 C.ar    1  UNL1        0.0282
     18 C           6.6677    1.7873   -2.7435 C.ar    1  UNL1       -0.0343
     19 C           4.8629   -0.6938   -4.2146 C.ar    1  UNL1       -0.0140
     20 C           6.0287   -1.4746   -4.2233 C.ar    1  UNL1       -0.0501
     21 C           6.6015   -1.7997   -5.4401 C.ar    1  UNL1       -0.0375
     22 C           6.0177   -1.3570   -6.6202 C.ar    1  UNL1        0.0026
     23 C           4.8601   -0.5999   -6.6481 C.ar    1  UNL1       -0.0519
     24 C           4.2764   -0.2682   -5.4245 C.ar    1  UNL1       -0.0533
     25 C           6.8400   -1.8134   -7.7263 C.2     1  UNL1        0.0876
     26 N           6.5786   -1.5405   -8.9660 N.2     1  UNL1       -0.0915
     27 O           7.5477   -2.1029   -9.8028 O.2     1  UNL1       -0.4090
     28 C           8.0034   -2.6172   -7.1951 C.3     1  UNL1       -0.0027
     29 C           7.8466   -2.5927   -5.6680 C.3     1  UNL1       -0.0215
     30 H          -3.0144    0.8955    0.4333 H       1  UNL1        0.0232
     31 H          -2.6354   -0.0089   -1.0404 H       1  UNL1        0.0232
     32 H          -3.0039   -0.8777    0.4568 H       1  UNL1        0.0232
     33 H          -0.9388    0.0473    1.5175 H       1  UNL1        0.0299
     34 H          -0.6905   -2.1252    0.5190 H       1  UNL1        0.0283
     35 H          -0.6391   -1.4673   -1.1107 H       1  UNL1        0.0283
     36 H           1.5400   -1.1466    1.0278 H       1  UNL1        0.0480
     37 H           1.5961   -2.1020   -0.4557 H       1  UNL1        0.0480
     38 H           1.5470    1.2586    0.9418 H       1  UNL1        0.0480
     39 H           1.5782    2.1079   -0.6083 H       1  UNL1        0.0480
     40 H          -0.6593    1.4418   -1.1783 H       1  UNL1        0.0283
     41 H          -0.6954    2.1697    0.4221 H       1  UNL1        0.0283
     42 H           2.1664   -0.9977   -3.1096 H       1  UNL1        0.0852
     43 H           6.7953   -0.2098    0.0073 H       1  UNL1        0.0639
     44 H           9.1582    0.5890   -0.1238 H       1  UNL1        0.0830
     45 H           8.3939    2.8390   -3.4875 H       1  UNL1        0.0830
     46 H           6.0078    2.1512   -3.5242 H       1  UNL1        0.0639
     47 H           6.4838   -1.8128   -3.2961 H       1  UNL1        0.0627
     48 H           4.4306   -0.2678   -7.5873 H       1  UNL1        0.0624
     49 H           3.3748    0.3414   -5.4141 H       1  UNL1        0.0624
     50 H           7.2511   -1.8149  -10.6860 H       1  UNL1        0.3278
     51 H           8.9505   -2.1614   -7.4999 H       1  UNL1        0.0333
     52 H           7.9579   -3.6411   -7.5793 H       1  UNL1        0.0333
     53 H           8.7070   -2.1075   -5.1954 H       1  UNL1        0.0317
     54 H           7.7433   -3.6069   -5.2686 H       1  UNL1        0.0317
@<TRIPOS>BOND
     1     1     2    1
     2     2     3    1
     3     3     4    1
     4     4     5    1
     5     5     6    1
     6     6     7    1
     7     2     7    1
     8     5     8    1
     9     8     9   ar
    10     9    10   ar
    11    10    11   ar
    12    11    12   ar
    13     8    12   ar
    14    11    13    1
    15    13    14   ar
    16    14    15   ar
    17    15    16   ar
    18    16    17   ar
    19    17    18   ar
    20    13    18   ar
    21    10    19    1
    22    19    20   ar
    23    20    21   ar
    24    21    22   ar
    25    22    23   ar
    26    23    24   ar
    27    19    24   ar
    28    22    25    1
    29    25    26    2
    30    26    27    1
    31    25    28    1
    32    28    29    1
    33    21    29    1
    34     1    30    1
    35     1    31    1
    36     1    32    1
    37     2    33    1
    38     3    34    1
    39     3    35    1
    40     4    36    1
    41     4    37    1
    42     6    38    1
    43     6    39    1
    44     7    40    1
    45     7    41    1
    46     9    42    1
    47    14    43    1
    48    15    44    1
    49    17    45    1
    50    18    46    1
    51    20    47    1
    52    23    48    1
    53    24    49    1
    54    27    50    1
    55    28    51    1
    56    28    52    1
    57    29    53    1
    58    29    54    1
@<TRIPOS>MOLECULE
mol_135438492_9
 54 58 0 0 0
SMALL
GASTEIGER

@<TRIPOS>ATOM
      1 C          -2.5047    0.0067    0.0484 C.3     1  UNL1       -0.0623
      2 C          -1.0215    0.0213    0.4234 C.3     1  UNL1       -0.0409
      3 C          -0.3412   -1.2696   -0.0711 C.3     1  UNL1       -0.0331
      4 C           1.1851   -1.1878   -0.0098 C.3     1  UNL1        0.0299
      5 N           1.5589   -0.0046   -0.7629 N.pl3   1  UNL1       -0.2554
      6 C           1.1811    1.2252   -0.0926 C.3     1  UNL1        0.0299
      7 C          -0.3483    1.2914   -0.1351 C.3     1  UNL1       -0.0331
      8 N           2.8364   -0.0343   -1.3299 N.ar    1  UNL1       -0.1879
      9 C           2.9934   -0.5349   -2.5912 C.ar    1  UNL1        0.0555
     10 C           4.2924   -0.2984   -2.9478 C.ar    1  UNL1        0.0294
     11 C           4.8601    0.3739   -1.8272 C.ar    1  UNL1        0.1023
     12 N           3.9730    0.4770   -0.8210 N.ar    1  UNL1       -0.1521
     13 C           6.2162    0.9082   -1.7537 C.ar    1  UNL1        0.0056
     14 C           7.1051    0.4752   -0.7736 C.ar    1  UNL1       -0.0343
     15 C           8.4169    0.9149   -0.8478 C.ar    1  UNL1        0.0282
     16 N           8.8841    1.7459   -1.8066 N.ar    1  UNL1       -0.2632
     17 C           7.9961    2.1709   -2.7286 C.ar    1  UNL1        0.0282
     18 C           6.6677    1.7873   -2.7435 C.ar    1  UNL1       -0.0343
     19 C           4.8629   -0.6938   -4.2146 C.ar    1  UNL1       -0.0140
     20 C           6.0287   -1.4746   -4.2233 C.ar    1  UNL1       -0.0501
     21 C           6.6015   -1.7997   -5.4401 C.ar    1  UNL1       -0.0375
     22 C           6.0177   -1.3570   -6.6202 C.ar    1  UNL1        0.0026
     23 C           4.8601   -0.5999   -6.6481 C.ar    1  UNL1       -0.0519
     24 C           4.2764   -0.2682   -5.4245 C.ar    1  UNL1       -0.0533
     25 C           6.8400   -1.8134   -7.7263 C.2     1  UNL1        0.0876
     26 N           6.5786   -1.5405   -8.9660 N.2     1  UNL1       -0.0915
     27 O           7.5477   -2.1029   -9.8028 O.2     1  UNL1       -0.4090
     28 C           8.0034   -2.6172   -7.1951 C.3     1  UNL1       -0.0027
     29 C           7.8466   -2.5927   -5.6680 C.3     1  UNL1       -0.0215
     30 H          -3.0144    0.8955    0.4333 H       1  UNL1        0.0232
     31 H          -2.6354   -0.0089   -1.0404 H       1  UNL1        0.0232
     32 H          -3.0039   -0.8777    0.4568 H       1  UNL1        0.0232
     33 H          -0.9388    0.0473    1.5175 H       1  UNL1        0.0299
     34 H          -0.6905   -2.1252    0.5190 H       1  UNL1        0.0283
     35 H          -0.6391   -1.4673   -1.1107 H       1  UNL1        0.0283
     36 H           1.5400   -1.1466    1.0278 H       1  UNL1        0.0480
     37 H           1.5961   -2.1020   -0.4557 H       1  UNL1        0.0480
     38 H           1.5470    1.2586    0.9418 H       1  UNL1        0.0480
     39 H           1.5782    2.1079   -0.6083 H       1  UNL1        0.0480
     40 H          -0.6593    1.4418   -1.1783 H       1  UNL1        0.0283
     41 H          -0.6954    2.1697    0.4221 H       1  UNL1        0.0283
     42 H           2.1664   -0.9977   -3.1096 H       1  UNL1        0.0852
     43 H           6.7953   -0.2098    0.0073 H       1  UNL1        0.0639
     44 H           9.1582    0.5890   -0.1238 H       1  UNL1        0.0830
     45 H           8.3939    2.8390   -3.4875 H       1  UNL1        0.0830
     46 H           6.0078    2.1512   -3.5242 H       1  UNL1        0.0639
     47 H           6.4838   -1.8128   -3.2961 H       1  UNL1        0.0627
     48 H           4.4306   -0.2678   -7.5873 H       1  UNL1        0.0624
     49 H           3.3748    0.3414   -5.4141 H       1  UNL1        0.0624
     50 H           7.2511   -1.8149  -10.6860 H       1  UNL1        0.3278
     51 H           8.9505   -2.1614   -7.4999 H       1  UNL1        0.0333
     52 H           7.9579   -3.6411   -7.5793 H       1  UNL1        0.0333
     53 H           8.7070   -2.1075   -5.1954 H       1  UNL1        0.0317
     54 H           7.7433   -3.6069   -5.2686 H       1  UNL1        0.0317
@<TRIPOS>BOND
     1     1     2    1
     2     2     3    1
     3     3     4    1
     4     4     5    1
     5     5     6    1
     6     6     7    1
     7     2     7    1
     8     5     8    1
     9     8     9   ar
    10     9    10   ar
    11    10    11   ar
    12    11    12   ar
    13     8    12   ar
    14    11    13    1
    15    13    14   ar
    16    14    15   ar
    17    15    16   ar
    18    16    17   ar
    19    17    18   ar
    20    13    18   ar
    21    10    19    1
    22    19    20   ar
    23    20    21   ar
    24    21    22   ar
    25    22    23   ar
    26    23    24   ar
    27    19    24   ar
    28    22    25    1
    29    25    26    2
    30    26    27    1
    31    25    28    1
    32    28    29    1
    33    21    29    1
    34     1    30    1
    35     1    31    1
    36     1    32    1
    37     2    33    1
    38     3    34    1
    39     3    35    1
    40     4    36    1
    41     4    37    1
    42     6    38    1
    43     6    39    1
    44     7    40    1
    45     7    41    1
    46     9    42    1
    47    14    43    1
    48    15    44    1
    49    17    45    1
    50    18    46    1
    51    20    47    1
    52    23    48    1
    53    24    49    1
    54    27    50    1
    55    28    51    1
    56    28    52    1
    57    29    53    1
    58    29    54    1
@<TRIPOS>MOLECULE
mol_11717001_10
 54 58 0 0 0
SMALL
GASTEIGER

@<TRIPOS>ATOM
      1 C          -2.5047    0.0067    0.0484 C.3     1  UNL1       -0.0623
      2 C          -1.0215    0.0213    0.4234 C.3     1  UNL1       -0.0409
      3 C          -0.3412   -1.2696   -0.0711 C.3     1  UNL1       -0.0331
      4 C           1.1851   -1.1878   -0.0098 C.3     1  UNL1        0.0299
      5 N           1.5589   -0.0046   -0.7629 N.pl3   1  UNL1       -0.2554
      6 C           1.1811    1.2252   -0.0926 C.3     1  UNL1        0.0299
      7 C          -0.3483    1.2914   -0.1351 C.3     1  UNL1       -0.0331
      8 N           2.8364   -0.0343   -1.3299 N.ar    1  UNL1       -0.1879
      9 C           2.9934   -0.5349   -2.5912 C.ar    1  UNL1        0.0555
     10 C           4.2924   -0.2984   -2.9478 C.ar    1  UNL1        0.0294
     11 C           4.8601    0.3739   -1.8272 C.ar    1  UNL1        0.1023
     12 N           3.9730    0.4770   -0.8210 N.ar    1  UNL1       -0.1521
     13 C           6.2162    0.9082   -1.7537 C.ar    1  UNL1        0.0056
     14 C           7.1051    0.4752   -0.7736 C.ar    1  UNL1       -0.0343
     15 C           8.4169    0.9149   -0.8478 C.ar    1  UNL1        0.0282
     16 N           8.8841    1.7459   -1.8066 N.ar    1  UNL1       -0.2632
     17 C           7.9961    2.1709   -2.7286 C.ar    1  UNL1        0.0282
     18 C           6.6677    1.7873   -2.7435 C.ar    1  UNL1       -0.0343
     19 C           4.8629   -0.6938   -4.2146 C.ar    1  UNL1       -0.0140
     20 C           6.0287   -1.4746   -4.2233 C.ar    1  UNL1       -0.0501
     21 C           6.6015   -1.7997   -5.4401 C.ar    1  UNL1       -0.0375
     22 C           6.0177   -1.3570   -6.6202 C.ar    1  UNL1        0.0026
     23 C           4.8601   -0.5999   -6.6481 C.ar    1  UNL1       -0.0519
     24 C           4.2764   -0.2682   -5.4245 C.ar    1  UNL1       -0.0533
     25 C           6.8400   -1.8134   -7.7263 C.2     1  UNL1        0.0876
     26 N           6.5786   -1.5405   -8.9660 N.2     1  UNL1       -0.0915
     27 O           7.5477   -2.1029   -9.8028 O.2     1  UNL1       -0.4090
     28 C           8.0034   -2.6172   -7.1951 C.3     1  UNL1       -0.0027
     29 C           7.8466   -2.5927   -5.6680 C.3     1  UNL1       -0.0215
     30 H          -3.0144    0.8955    0.4333 H       1  UNL1        0.0232
     31 H          -2.6354   -0.0089   -1.0404 H       1  UNL1        0.0232
     32 H          -3.0039   -0.8777    0.4568 H       1  UNL1        0.0232
     33 H          -0.9388    0.0473    1.5175 H       1  UNL1        0.0299
     34 H          -0.6905   -2.1252    0.5190 H       1  UNL1        0.0283
     35 H          -0.6391   -1.4673   -1.1107 H       1  UNL1        0.0283
     36 H           1.5400   -1.1466    1.0278 H       1  UNL1        0.0480
     37 H           1.5961   -2.1020   -0.4557 H       1  UNL1        0.0480
     38 H           1.5470    1.2586    0.9418 H       1  UNL1        0.0480
     39 H           1.5782    2.1079   -0.6083 H       1  UNL1        0.0480
     40 H          -0.6593    1.4418   -1.1783 H       1  UNL1        0.0283
     41 H          -0.6954    2.1697    0.4221 H       1  UNL1        0.0283
     42 H           2.1664   -0.9977   -3.1096 H       1  UNL1        0.0852
     43 H           6.7953   -0.2098    0.0073 H       1  UNL1        0.0639
     44 H           9.1582    0.5890   -0.1238 H       1  UNL1        0.0830
     45 H           8.3939    2.8390   -3.4875 H       1  UNL1        0.0830
     46 H           6.0078    2.1512   -3.5242 H       1  UNL1        0.0639
     47 H           6.4838   -1.8128   -3.2961 H       1  UNL1        0.0627
     48 H           4.4306   -0.2678   -7.5873 H       1  UNL1        0.0624
     49 H           3.3748    0.3414   -5.4141 H       1  UNL1        0.0624
     50 H           7.2511   -1.8149  -10.6860 H       1  UNL1        0.3278
     51 H           8.9505   -2.1614   -7.4999 H       1  UNL1        0.0333
     52 H           7.9579   -3.6411   -7.5793 H       1  UNL1        0.0333
     53 H           8.7070   -2.1075   -5.1954 H       1  UNL1        0.0317
     54 H           7.7433   -3.6069   -5.2686 H       1  UNL1        0.0317
@<TRIPOS>BOND
     1     1     2    1
     2     2     3    1
     3     3     4    1
     4     4     5    1
     5     5     6    1
     6     6     7    1
     7     2     7    1
     8     5     8    1
     9     8     9   ar
    10     9    10   ar
    11    10    11   ar
    12    11    12   ar
    13     8    12   ar
    14    11    13    1
    15    13    14   ar
    16    14    15   ar
    17    15    16   ar
    18    16    17   ar
    19    17    18   ar
    20    13    18   ar
    21    10    19    1
    22    19    20   ar
    23    20    21   ar
    24    21    22   ar
    25    22    23   ar
    26    23    24   ar
    27    19    24   ar
    28    22    25    1
    29    25    26    2
    30    26    27    1
    31    25    28    1
    32    28    29    1
    33    21    29    1
    34     1    30    1
    35     1    31    1
    36     1    32    1
    37     2    33    1
    38     3    34    1
    39     3    35    1
    40     4    36    1
    41     4    37    1
    42     6    38    1
    43     6    39    1
    44     7    40    1
    45     7    41    1
    46     9    42    1
    47    14    43    1
    48    15    44    1
    49    17    45    1
    50    18    46    1
    51    20    47    1
    52    23    48    1
    53    24    49    1
    54    27    50    1
    55    28    51    1
    56    28    52    1
    57    29    53    1
    58    29    54    1
@<TRIPOS>MOLECULE
mol_44587235_11
 54 58 0 0 0
SMALL
GASTEIGER

@<TRIPOS>ATOM
      1 C          -2.5047    0.0067    0.0484 C.3     1  UNL1       -0.0623
      2 C          -1.0215    0.0213    0.4234 C.3     1  UNL1       -0.0409
      3 C          -0.3412   -1.2696   -0.0711 C.3     1  UNL1       -0.0331
      4 C           1.1851   -1.1878   -0.0098 C.3     1  UNL1        0.0299
      5 N           1.5589   -0.0046   -0.7629 N.pl3   1  UNL1       -0.2554
      6 C           1.1811    1.2252   -0.0926 C.3     1  UNL1        0.0299
      7 C          -0.3483    1.2914   -0.1351 C.3     1  UNL1       -0.0331
      8 N           2.8364   -0.0343   -1.3299 N.ar    1  UNL1       -0.1879
      9 C           2.9934   -0.5349   -2.5912 C.ar    1  UNL1        0.0555
     10 C           4.2924   -0.2984   -2.9478 C.ar    1  UNL1        0.0294
     11 C           4.8601    0.3739   -1.8272 C.ar    1  UNL1        0.1023
     12 N           3.9730    0.4770   -0.8210 N.ar    1  UNL1       -0.1521
     13 C           6.2162    0.9082   -1.7537 C.ar    1  UNL1        0.0056
     14 C           7.1051    0.4752   -0.7736 C.ar    1  UNL1       -0.0343
     15 C           8.4169    0.9149   -0.8478 C.ar    1  UNL1        0.0282
     16 N           8.8841    1.7459   -1.8066 N.ar    1  UNL1       -0.2632
     17 C           7.9961    2.1709   -2.7286 C.ar    1  UNL1        0.0282
     18 C           6.6677    1.7873   -2.7435 C.ar    1  UNL1       -0.0343
     19 C           4.8629   -0.6938   -4.2146 C.ar    1  UNL1       -0.0140
     20 C           6.0287   -1.4746   -4.2233 C.ar    1  UNL1       -0.0501
     21 C           6.6015   -1.7997   -5.4401 C.ar    1  UNL1       -0.0375
     22 C           6.0177   -1.3570   -6.6202 C.ar    1  UNL1        0.0026
     23 C           4.8601   -0.5999   -6.6481 C.ar    1  UNL1       -0.0519
     24 C           4.2764   -0.2682   -5.4245 C.ar    1  UNL1       -0.0533
     25 C           6.8400   -1.8134   -7.7263 C.2     1  UNL1        0.0876
     26 N           6.5786   -1.5405   -8.9660 N.2     1  UNL1       -0.0915
     27 O           7.5477   -2.1029   -9.8028 O.2     1  UNL1       -0.4090
     28 C           8.0034   -2.6172   -7.1951 C.3     1  UNL1       -0.0027
     29 C           7.8466   -2.5927   -5.6680 C.3     1  UNL1       -0.0215
     30 H          -3.0144    0.8955    0.4333 H       1  UNL1        0.0232
     31 H          -2.6354   -0.0089   -1.0404 H       1  UNL1        0.0232
     32 H          -3.0039   -0.8777    0.4568 H       1  UNL1        0.0232
     33 H          -0.9388    0.0473    1.5175 H       1  UNL1        0.0299
     34 H          -0.6905   -2.1252    0.5190 H       1  UNL1        0.0283
     35 H          -0.6391   -1.4673   -1.1107 H       1  UNL1        0.0283
     36 H           1.5400   -1.1466    1.0278 H       1  UNL1        0.0480
     37 H           1.5961   -2.1020   -0.4557 H       1  UNL1        0.0480
     38 H           1.5470    1.2586    0.9418 H       1  UNL1        0.0480
     39 H           1.5782    2.1079   -0.6083 H       1  UNL1        0.0480
     40 H          -0.6593    1.4418   -1.1783 H       1  UNL1        0.0283
     41 H          -0.6954    2.1697    0.4221 H       1  UNL1        0.0283
     42 H           2.1664   -0.9977   -3.1096 H       1  UNL1        0.0852
     43 H           6.7953   -0.2098    0.0073 H       1  UNL1        0.0639
     44 H           9.1582    0.5890   -0.1238 H       1  UNL1        0.0830
     45 H           8.3939    2.8390   -3.4875 H       1  UNL1        0.0830
     46 H           6.0078    2.1512   -3.5242 H       1  UNL1        0.0639
     47 H           6.4838   -1.8128   -3.2961 H       1  UNL1        0.0627
     48 H           4.4306   -0.2678   -7.5873 H       1  UNL1        0.0624
     49 H           3.3748    0.3414   -5.4141 H       1  UNL1        0.0624
     50 H           7.2511   -1.8149  -10.6860 H       1  UNL1        0.3278
     51 H           8.9505   -2.1614   -7.4999 H       1  UNL1        0.0333
     52 H           7.9579   -3.6411   -7.5793 H       1  UNL1        0.0333
     53 H           8.7070   -2.1075   -5.1954 H       1  UNL1        0.0317
     54 H           7.7433   -3.6069   -5.2686 H       1  UNL1        0.0317
@<TRIPOS>BOND
     1     1     2    1
     2     2     3    1
     3     3     4    1
     4     4     5    1
     5     5     6    1
     6     6     7    1
     7     2     7    1
     8     5     8    1
     9     8     9   ar
    10     9    10   ar
    11    10    11   ar
    12    11    12   ar
    13     8    12   ar
    14    11    13    1
    15    13    14   ar
    16    14    15   ar
    17    15    16   ar
    18    16    17   ar
    19    17    18   ar
    20    13    18   ar
    21    10    19    1
    22    19    20   ar
    23    20    21   ar
    24    21    22   ar
    25    22    23   ar
    26    23    24   ar
    27    19    24   ar
    28    22    25    1
    29    25    26    2
    30    26    27    1
    31    25    28    1
    32    28    29    1
    33    21    29    1
    34     1    30    1
    35     1    31    1
    36     1    32    1
    37     2    33    1
    38     3    34    1
    39     3    35    1
    40     4    36    1
    41     4    37    1
    42     6    38    1
    43     6    39    1
    44     7    40    1
    45     7    41    1
    46     9    42    1
    47    14    43    1
    48    15    44    1
    49    17    45    1
    50    18    46    1
    51    20    47    1
    52    23    48    1
    53    24    49    1
    54    27    50    1
    55    28    51    1
    56    28    52    1
    57    29    53    1
    58    29    54    1
@<TRIPOS>MOLECULE
mol_60146017_12
 54 58 0 0 0
SMALL
GASTEIGER

@<TRIPOS>ATOM
      1 C          -2.5047    0.0067    0.0484 C.3     1  UNL1       -0.0623
      2 C          -1.0215    0.0213    0.4234 C.3     1  UNL1       -0.0409
      3 C          -0.3412   -1.2696   -0.0711 C.3     1  UNL1       -0.0331
      4 C           1.1851   -1.1878   -0.0098 C.3     1  UNL1        0.0299
      5 N           1.5589   -0.0046   -0.7629 N.pl3   1  UNL1       -0.2554
      6 C           1.1811    1.2252   -0.0926 C.3     1  UNL1        0.0299
      7 C          -0.3483    1.2914   -0.1351 C.3     1  UNL1       -0.0331
      8 N           2.8364   -0.0343   -1.3299 N.ar    1  UNL1       -0.1879
      9 C           2.9934   -0.5349   -2.5912 C.ar    1  UNL1        0.0555
     10 C           4.2924   -0.2984   -2.9478 C.ar    1  UNL1        0.0294
     11 C           4.8601    0.3739   -1.8272 C.ar    1  UNL1        0.1023
     12 N           3.9730    0.4770   -0.8210 N.ar    1  UNL1       -0.1521
     13 C           6.2162    0.9082   -1.7537 C.ar    1  UNL1        0.0056
     14 C           7.1051    0.4752   -0.7736 C.ar    1  UNL1       -0.0343
     15 C           8.4169    0.9149   -0.8478 C.ar    1  UNL1        0.0282
     16 N           8.8841    1.7459   -1.8066 N.ar    1  UNL1       -0.2632
     17 C           7.9961    2.1709   -2.7286 C.ar    1  UNL1        0.0282
     18 C           6.6677    1.7873   -2.7435 C.ar    1  UNL1       -0.0343
     19 C           4.8629   -0.6938   -4.2146 C.ar    1  UNL1       -0.0140
     20 C           6.0287   -1.4746   -4.2233 C.ar    1  UNL1       -0.0501
     21 C           6.6015   -1.7997   -5.4401 C.ar    1  UNL1       -0.0375
     22 C           6.0177   -1.3570   -6.6202 C.ar    1  UNL1        0.0026
     23 C           4.8601   -0.5999   -6.6481 C.ar    1  UNL1       -0.0519
     24 C           4.2764   -0.2682   -5.4245 C.ar    1  UNL1       -0.0533
     25 C           6.8400   -1.8134   -7.7263 C.2     1  UNL1        0.0876
     26 N           6.5786   -1.5405   -8.9660 N.2     1  UNL1       -0.0915
     27 O           7.5477   -2.1029   -9.8028 O.2     1  UNL1       -0.4090
     28 C           8.0034   -2.6172   -7.1951 C.3     1  UNL1       -0.0027
     29 C           7.8466   -2.5927   -5.6680 C.3     1  UNL1       -0.0215
     30 H          -3.0144    0.8955    0.4333 H       1  UNL1        0.0232
     31 H          -2.6354   -0.0089   -1.0404 H       1  UNL1        0.0232
     32 H          -3.0039   -0.8777    0.4568 H       1  UNL1        0.0232
     33 H          -0.9388    0.0473    1.5175 H       1  UNL1        0.0299
     34 H          -0.6905   -2.1252    0.5190 H       1  UNL1        0.0283
     35 H          -0.6391   -1.4673   -1.1107 H       1  UNL1        0.0283
     36 H           1.5400   -1.1466    1.0278 H       1  UNL1        0.0480
     37 H           1.5961   -2.1020   -0.4557 H       1  UNL1        0.0480
     38 H           1.5470    1.2586    0.9418 H       1  UNL1        0.0480
     39 H           1.5782    2.1079   -0.6083 H       1  UNL1        0.0480
     40 H          -0.6593    1.4418   -1.1783 H       1  UNL1        0.0283
     41 H          -0.6954    2.1697    0.4221 H       1  UNL1        0.0283
     42 H           2.1664   -0.9977   -3.1096 H       1  UNL1        0.0852
     43 H           6.7953   -0.2098    0.0073 H       1  UNL1        0.0639
     44 H           9.1582    0.5890   -0.1238 H       1  UNL1        0.0830
     45 H           8.3939    2.8390   -3.4875 H       1  UNL1        0.0830
     46 H           6.0078    2.1512   -3.5242 H       1  UNL1        0.0639
     47 H           6.4838   -1.8128   -3.2961 H       1  UNL1        0.0627
     48 H           4.4306   -0.2678   -7.5873 H       1  UNL1        0.0624
     49 H           3.3748    0.3414   -5.4141 H       1  UNL1        0.0624
     50 H           7.2511   -1.8149  -10.6860 H       1  UNL1        0.3278
     51 H           8.9505   -2.1614   -7.4999 H       1  UNL1        0.0333
     52 H           7.9579   -3.6411   -7.5793 H       1  UNL1        0.0333
     53 H           8.7070   -2.1075   -5.1954 H       1  UNL1        0.0317
     54 H           7.7433   -3.6069   -5.2686 H       1  UNL1        0.0317
@<TRIPOS>BOND
     1     1     2    1
     2     2     3    1
     3     3     4    1
     4     4     5    1
     5     5     6    1
     6     6     7    1
     7     2     7    1
     8     5     8    1
     9     8     9   ar
    10     9    10   ar
    11    10    11   ar
    12    11    12   ar
    13     8    12   ar
    14    11    13    1
    15    13    14   ar
    16    14    15   ar
    17    15    16   ar
    18    16    17   ar
    19    17    18   ar
    20    13    18   ar
    21    10    19    1
    22    19    20   ar
    23    20    21   ar
    24    21    22   ar
    25    22    23   ar
    26    23    24   ar
    27    19    24   ar
    28    22    25    1
    29    25    26    2
    30    26    27    1
    31    25    28    1
    32    28    29    1
    33    21    29    1
    34     1    30    1
    35     1    31    1
    36     1    32    1
    37     2    33    1
    38     3    34    1
    39     3    35    1
    40     4    36    1
    41     4    37    1
    42     6    38    1
    43     6    39    1
    44     7    40    1
    45     7    41    1
    46     9    42    1
    47    14    43    1
    48    15    44    1
    49    17    45    1
    50    18    46    1
    51    20    47    1
    52    23    48    1
    53    24    49    1
    54    27    50    1
    55    28    51    1
    56    28    52    1
    57    29    53    1
    58    29    54    1
@<TRIPOS>MOLECULE
mol_11639637_13
 54 58 0 0 0
SMALL
GASTEIGER

@<TRIPOS>ATOM
      1 C          -2.5047    0.0067    0.0484 C.3     1  UNL1       -0.0623
      2 C          -1.0215    0.0213    0.4234 C.3     1  UNL1       -0.0409
      3 C          -0.3412   -1.2696   -0.0711 C.3     1  UNL1       -0.0331
      4 C           1.1851   -1.1878   -0.0098 C.3     1  UNL1        0.0299
      5 N           1.5589   -0.0046   -0.7629 N.pl3   1  UNL1       -0.2554
      6 C           1.1811    1.2252   -0.0926 C.3     1  UNL1        0.0299
      7 C          -0.3483    1.2914   -0.1351 C.3     1  UNL1       -0.0331
      8 N           2.8364   -0.0343   -1.3299 N.ar    1  UNL1       -0.1879
      9 C           2.9934   -0.5349   -2.5912 C.ar    1  UNL1        0.0555
     10 C           4.2924   -0.2984   -2.9478 C.ar    1  UNL1        0.0294
     11 C           4.8601    0.3739   -1.8272 C.ar    1  UNL1        0.1023
     12 N           3.9730    0.4770   -0.8210 N.ar    1  UNL1       -0.1521
     13 C           6.2162    0.9082   -1.7537 C.ar    1  UNL1        0.0056
     14 C           7.1051    0.4752   -0.7736 C.ar    1  UNL1       -0.0343
     15 C           8.4169    0.9149   -0.8478 C.ar    1  UNL1        0.0282
     16 N           8.8841    1.7459   -1.8066 N.ar    1  UNL1       -0.2632
     17 C           7.9961    2.1709   -2.7286 C.ar    1  UNL1        0.0282
     18 C           6.6677    1.7873   -2.7435 C.ar    1  UNL1       -0.0343
     19 C           4.8629   -0.6938   -4.2146 C.ar    1  UNL1       -0.0140
     20 C           6.0287   -1.4746   -4.2233 C.ar    1  UNL1       -0.0501
     21 C           6.6015   -1.7997   -5.4401 C.ar    1  UNL1       -0.0375
     22 C           6.0177   -1.3570   -6.6202 C.ar    1  UNL1        0.0026
     23 C           4.8601   -0.5999   -6.6481 C.ar    1  UNL1       -0.0519
     24 C           4.2764   -0.2682   -5.4245 C.ar    1  UNL1       -0.0533
     25 C           6.8400   -1.8134   -7.7263 C.2     1  UNL1        0.0876
     26 N           6.5786   -1.5405   -8.9660 N.2     1  UNL1       -0.0915
     27 O           7.5477   -2.1029   -9.8028 O.2     1  UNL1       -0.4090
     28 C           8.0034   -2.6172   -7.1951 C.3     1  UNL1       -0.0027
     29 C           7.8466   -2.5927   -5.6680 C.3     1  UNL1       -0.0215
     30 H          -3.0144    0.8955    0.4333 H       1  UNL1        0.0232
     31 H          -2.6354   -0.0089   -1.0404 H       1  UNL1        0.0232
     32 H          -3.0039   -0.8777    0.4568 H       1  UNL1        0.0232
     33 H          -0.9388    0.0473    1.5175 H       1  UNL1        0.0299
     34 H          -0.6905   -2.1252    0.5190 H       1  UNL1        0.0283
     35 H          -0.6391   -1.4673   -1.1107 H       1  UNL1        0.0283
     36 H           1.5400   -1.1466    1.0278 H       1  UNL1        0.0480
     37 H           1.5961   -2.1020   -0.4557 H       1  UNL1        0.0480
     38 H           1.5470    1.2586    0.9418 H       1  UNL1        0.0480
     39 H           1.5782    2.1079   -0.6083 H       1  UNL1        0.0480
     40 H          -0.6593    1.4418   -1.1783 H       1  UNL1        0.0283
     41 H          -0.6954    2.1697    0.4221 H       1  UNL1        0.0283
     42 H           2.1664   -0.9977   -3.1096 H       1  UNL1        0.0852
     43 H           6.7953   -0.2098    0.0073 H       1  UNL1        0.0639
     44 H           9.1582    0.5890   -0.1238 H       1  UNL1        0.0830
     45 H           8.3939    2.8390   -3.4875 H       1  UNL1        0.0830
     46 H           6.0078    2.1512   -3.5242 H       1  UNL1        0.0639
     47 H           6.4838   -1.8128   -3.2961 H       1  UNL1        0.0627
     48 H           4.4306   -0.2678   -7.5873 H       1  UNL1        0.0624
     49 H           3.3748    0.3414   -5.4141 H       1  UNL1        0.0624
     50 H           7.2511   -1.8149  -10.6860 H       1  UNL1        0.3278
     51 H           8.9505   -2.1614   -7.4999 H       1  UNL1        0.0333
     52 H           7.9579   -3.6411   -7.5793 H       1  UNL1        0.0333
     53 H           8.7070   -2.1075   -5.1954 H       1  UNL1        0.0317
     54 H           7.7433   -3.6069   -5.2686 H       1  UNL1        0.0317
@<TRIPOS>BOND
     1     1     2    1
     2     2     3    1
     3     3     4    1
     4     4     5    1
     5     5     6    1
     6     6     7    1
     7     2     7    1
     8     5     8    1
     9     8     9   ar
    10     9    10   ar
    11    10    11   ar
    12    11    12   ar
    13     8    12   ar
    14    11    13    1
    15    13    14   ar
    16    14    15   ar
    17    15    16   ar
    18    16    17   ar
    19    17    18   ar
    20    13    18   ar
    21    10    19    1
    22    19    20   ar
    23    20    21   ar
    24    21    22   ar
    25    22    23   ar
    26    23    24   ar
    27    19    24   ar
    28    22    25    1
    29    25    26    2
    30    26    27    1
    31    25    28    1
    32    28    29    1
    33    21    29    1
    34     1    30    1
    35     1    31    1
    36     1    32    1
    37     2    33    1
    38     3    34    1
    39     3    35    1
    40     4    36    1
    41     4    37    1
    42     6    38    1
    43     6    39    1
    44     7    40    1
    45     7    41    1
    46     9    42    1
    47    14    43    1
    48    15    44    1
    49    17    45    1
    50    18    46    1
    51    20    47    1
    52    23    48    1
    53    24    49    1
    54    27    50    1
    55    28    51    1
    56    28    52    1
    57    29    53    1
    58    29    54    1
@<TRIPOS>MOLECULE
mol_74627710_14
 54 58 0 0 0
SMALL
GASTEIGER

@<TRIPOS>ATOM
      1 C          -2.5047    0.0067    0.0484 C.3     1  UNL1       -0.0623
      2 C          -1.0215    0.0213    0.4234 C.3     1  UNL1       -0.0409
      3 C          -0.3412   -1.2696   -0.0711 C.3     1  UNL1       -0.0331
      4 C           1.1851   -1.1878   -0.0098 C.3     1  UNL1        0.0299
      5 N           1.5589   -0.0046   -0.7629 N.pl3   1  UNL1       -0.2554
      6 C           1.1811    1.2252   -0.0926 C.3     1  UNL1        0.0299
      7 C          -0.3483    1.2914   -0.1351 C.3     1  UNL1       -0.0331
      8 N           2.8364   -0.0343   -1.3299 N.ar    1  UNL1       -0.1879
      9 C           2.9934   -0.5349   -2.5912 C.ar    1  UNL1        0.0555
     10 C           4.2924   -0.2984   -2.9478 C.ar    1  UNL1        0.0294
     11 C           4.8601    0.3739   -1.8272 C.ar    1  UNL1        0.1023
     12 N           3.9730    0.4770   -0.8210 N.ar    1  UNL1       -0.1521
     13 C           6.2162    0.9082   -1.7537 C.ar    1  UNL1        0.0056
     14 C           7.1051    0.4752   -0.7736 C.ar    1  UNL1       -0.0343
     15 C           8.4169    0.9149   -0.8478 C.ar    1  UNL1        0.0282
     16 N           8.8841    1.7459   -1.8066 N.ar    1  UNL1       -0.2632
     17 C           7.9961    2.1709   -2.7286 C.ar    1  UNL1        0.0282
     18 C           6.6677    1.7873   -2.7435 C.ar    1  UNL1       -0.0343
     19 C           4.8629   -0.6938   -4.2146 C.ar    1  UNL1       -0.0140
     20 C           6.0287   -1.4746   -4.2233 C.ar    1  UNL1       -0.0501
     21 C           6.6015   -1.7997   -5.4401 C.ar    1  UNL1       -0.0375
     22 C           6.0177   -1.3570   -6.6202 C.ar    1  UNL1        0.0026
     23 C           4.8601   -0.5999   -6.6481 C.ar    1  UNL1       -0.0519
     24 C           4.2764   -0.2682   -5.4245 C.ar    1  UNL1       -0.0533
     25 C           6.8400   -1.8134   -7.7263 C.2     1  UNL1        0.0876
     26 N           6.5786   -1.5405   -8.9660 N.2     1  UNL1       -0.0915
     27 O           7.5477   -2.1029   -9.8028 O.2     1  UNL1       -0.4090
     28 C           8.0034   -2.6172   -7.1951 C.3     1  UNL1       -0.0027
     29 C           7.8466   -2.5927   -5.6680 C.3     1  UNL1       -0.0215
     30 H          -3.0144    0.8955    0.4333 H       1  UNL1        0.0232
     31 H          -2.6354   -0.0089   -1.0404 H       1  UNL1        0.0232
     32 H          -3.0039   -0.8777    0.4568 H       1  UNL1        0.0232
     33 H          -0.9388    0.0473    1.5175 H       1  UNL1        0.0299
     34 H          -0.6905   -2.1252    0.5190 H       1  UNL1        0.0283
     35 H          -0.6391   -1.4673   -1.1107 H       1  UNL1        0.0283
     36 H           1.5400   -1.1466    1.0278 H       1  UNL1        0.0480
     37 H           1.5961   -2.1020   -0.4557 H       1  UNL1        0.0480
     38 H           1.5470    1.2586    0.9418 H       1  UNL1        0.0480
     39 H           1.5782    2.1079   -0.6083 H       1  UNL1        0.0480
     40 H          -0.6593    1.4418   -1.1783 H       1  UNL1        0.0283
     41 H          -0.6954    2.1697    0.4221 H       1  UNL1        0.0283
     42 H           2.1664   -0.9977   -3.1096 H       1  UNL1        0.0852
     43 H           6.7953   -0.2098    0.0073 H       1  UNL1        0.0639
     44 H           9.1582    0.5890   -0.1238 H       1  UNL1        0.0830
     45 H           8.3939    2.8390   -3.4875 H       1  UNL1        0.0830
     46 H           6.0078    2.1512   -3.5242 H       1  UNL1        0.0639
     47 H           6.4838   -1.8128   -3.2961 H       1  UNL1        0.0627
     48 H           4.4306   -0.2678   -7.5873 H       1  UNL1        0.0624
     49 H           3.3748    0.3414   -5.4141 H       1  UNL1        0.0624
     50 H           7.2511   -1.8149  -10.6860 H       1  UNL1        0.3278
     51 H           8.9505   -2.1614   -7.4999 H       1  UNL1        0.0333
     52 H           7.9579   -3.6411   -7.5793 H       1  UNL1        0.0333
     53 H           8.7070   -2.1075   -5.1954 H       1  UNL1        0.0317
     54 H           7.7433   -3.6069   -5.2686 H       1  UNL1        0.0317
@<TRIPOS>BOND
     1     1     2    1
     2     2     3    1
     3     3     4    1
     4     4     5    1
     5     5     6    1
     6     6     7    1
     7     2     7    1
     8     5     8    1
     9     8     9   ar
    10     9    10   ar
    11    10    11   ar
    12    11    12   ar
    13     8    12   ar
    14    11    13    1
    15    13    14   ar
    16    14    15   ar
    17    15    16   ar
    18    16    17   ar
    19    17    18   ar
    20    13    18   ar
    21    10    19    1
    22    19    20   ar
    23    20    21   ar
    24    21    22   ar
    25    22    23   ar
    26    23    24   ar
    27    19    24   ar
    28    22    25    1
    29    25    26    2
    30    26    27    1
    31    25    28    1
    32    28    29    1
    33    21    29    1
    34     1    30    1
    35     1    31    1
    36     1    32    1
    37     2    33    1
    38     3    34    1
    39     3    35    1
    40     4    36    1
    41     4    37    1
    42     6    38    1
    43     6    39    1
    44     7    40    1
    45     7    41    1
    46     9    42    1
    47    14    43    1
    48    15    44    1
    49    17    45    1
    50    18    46    1
    51    20    47    1
    52    23    48    1
    53    24    49    1
    54    27    50    1
    55    28    51    1
    56    28    52    1
    57    29    53    1
    58    29    54    1
@<TRIPOS>MOLECULE
mol_87623644_15
 54 58 0 0 0
SMALL
GASTEIGER

@<TRIPOS>ATOM
      1 C          -2.5047    0.0067    0.0484 C.3     1  UNL1       -0.0623
      2 C          -1.0215    0.0213    0.4234 C.3     1  UNL1       -0.0409
      3 C          -0.3412   -1.2696   -0.0711 C.3     1  UNL1       -0.0331
      4 C           1.1851   -1.1878   -0.0098 C.3     1  UNL1        0.0299
      5 N           1.5589   -0.0046   -0.7629 N.pl3   1  UNL1       -0.2554
      6 C           1.1811    1.2252   -0.0926 C.3     1  UNL1        0.0299
      7 C          -0.3483    1.2914   -0.1351 C.3     1  UNL1       -0.0331
      8 N           2.8364   -0.0343   -1.3299 N.ar    1  UNL1       -0.1879
      9 C           2.9934   -0.5349   -2.5912 C.ar    1  UNL1        0.0555
     10 C           4.2924   -0.2984   -2.9478 C.ar    1  UNL1        0.0294
     11 C           4.8601    0.3739   -1.8272 C.ar    1  UNL1        0.1023
     12 N           3.9730    0.4770   -0.8210 N.ar    1  UNL1       -0.1521
     13 C           6.2162    0.9082   -1.7537 C.ar    1  UNL1        0.0056
     14 C           7.1051    0.4752   -0.7736 C.ar    1  UNL1       -0.0343
     15 C           8.4169    0.9149   -0.8478 C.ar    1  UNL1        0.0282
     16 N           8.8841    1.7459   -1.8066 N.ar    1  UNL1       -0.2632
     17 C           7.9961    2.1709   -2.7286 C.ar    1  UNL1        0.0282
     18 C           6.6677    1.7873   -2.7435 C.ar    1  UNL1       -0.0343
     19 C           4.8629   -0.6938   -4.2146 C.ar    1  UNL1       -0.0140
     20 C           6.0287   -1.4746   -4.2233 C.ar    1  UNL1       -0.0501
     21 C           6.6015   -1.7997   -5.4401 C.ar    1  UNL1       -0.0375
     22 C           6.0177   -1.3570   -6.6202 C.ar    1  UNL1        0.0026
     23 C           4.8601   -0.5999   -6.6481 C.ar    1  UNL1       -0.0519
     24 C           4.2764   -0.2682   -5.4245 C.ar    1  UNL1       -0.0533
     25 C           6.8400   -1.8134   -7.7263 C.2     1  UNL1        0.0876
     26 N           6.5786   -1.5405   -8.9660 N.2     1  UNL1       -0.0915
     27 O           7.5477   -2.1029   -9.8028 O.2     1  UNL1       -0.4090
     28 C           8.0034   -2.6172   -7.1951 C.3     1  UNL1       -0.0027
     29 C           7.8466   -2.5927   -5.6680 C.3     1  UNL1       -0.0215
     30 H          -3.0144    0.8955    0.4333 H       1  UNL1        0.0232
     31 H          -2.6354   -0.0089   -1.0404 H       1  UNL1        0.0232
     32 H          -3.0039   -0.8777    0.4568 H       1  UNL1        0.0232
     33 H          -0.9388    0.0473    1.5175 H       1  UNL1        0.0299
     34 H          -0.6905   -2.1252    0.5190 H       1  UNL1        0.0283
     35 H          -0.6391   -1.4673   -1.1107 H       1  UNL1        0.0283
     36 H           1.5400   -1.1466    1.0278 H       1  UNL1        0.0480
     37 H           1.5961   -2.1020   -0.4557 H       1  UNL1        0.0480
     38 H           1.5470    1.2586    0.9418 H       1  UNL1        0.0480
     39 H           1.5782    2.1079   -0.6083 H       1  UNL1        0.0480
     40 H          -0.6593    1.4418   -1.1783 H       1  UNL1        0.0283
     41 H          -0.6954    2.1697    0.4221 H       1  UNL1        0.0283
     42 H           2.1664   -0.9977   -3.1096 H       1  UNL1        0.0852
     43 H           6.7953   -0.2098    0.0073 H       1  UNL1        0.0639
     44 H           9.1582    0.5890   -0.1238 H       1  UNL1        0.0830
     45 H           8.3939    2.8390   -3.4875 H       1  UNL1        0.0830
     46 H           6.0078    2.1512   -3.5242 H       1  UNL1        0.0639
     47 H           6.4838   -1.8128   -3.2961 H       1  UNL1        0.0627
     48 H           4.4306   -0.2678   -7.5873 H       1  UNL1        0.0624
     49 H           3.3748    0.3414   -5.4141 H       1  UNL1        0.0624
     50 H           7.2511   -1.8149  -10.6860 H       1  UNL1        0.3278
     51 H           8.9505   -2.1614   -7.4999 H       1  UNL1        0.0333
     52 H           7.9579   -3.6411   -7.5793 H       1  UNL1        0.0333
     53 H           8.7070   -2.1075   -5.1954 H       1  UNL1        0.0317
     54 H           7.7433   -3.6069   -5.2686 H       1  UNL1        0.0317
@<TRIPOS>BOND
     1     1     2    1
     2     2     3    1
     3     3     4    1
     4     4     5    1
     5     5     6    1
     6     6     7    1
     7     2     7    1
     8     5     8    1
     9     8     9   ar
    10     9    10   ar
    11    10    11   ar
    12    11    12   ar
    13     8    12   ar
    14    11    13    1
    15    13    14   ar
    16    14    15   ar
    17    15    16   ar
    18    16    17   ar
    19    17    18   ar
    20    13    18   ar
    21    10    19    1
    22    19    20   ar
    23    20    21   ar
    24    21    22   ar
    25    22    23   ar
    26    23    24   ar
    27    19    24   ar
    28    22    25    1
    29    25    26    2
    30    26    27    1
    31    25    28    1
    32    28    29    1
    33    21    29    1
    34     1    30    1
    35     1    31    1
    36     1    32    1
    37     2    33    1
    38     3    34    1
    39     3    35    1
    40     4    36    1
    41     4    37    1
    42     6    38    1
    43     6    39    1
    44     7    40    1
    45     7    41    1
    46     9    42    1
    47    14    43    1
    48    15    44    1
    49    17    45    1
    50    18    46    1
    51    20    47    1
    52    23    48    1
    53    24    49    1
    54    27    50    1
    55    28    51    1
    56    28    52    1
    57    29    53    1
    58    29    54    1
