@<TRIPOS>MOLECULE
mol_11531192_0
 54 58 0 0 0
SMALL
GASTEIGER

@<TRIPOS>ATOM
      1 C           1.0468    0.0836   -0.0286 C.3     1  UNL1       -0.0623
      2 C           2.5668    0.0836   -0.0286 C.3     1  UNL1       -0.0409
      3 C           3.0734   -1.0017    0.9072 C.3     1  UNL1       -0.0331
      4 C           4.5934   -1.0017    0.9072 C.3     1  UNL1        0.0299
      5 N           5.0834   -2.0513    1.8122 N.pl3   1  UNL1       -0.2554
      6 C           4.1282   -2.8975    2.5419 C.3     1  UNL1        0.0299
      7 C           3.0734    1.4367    0.4434 C.3     1  UNL1       -0.0331
      8 N           6.4795   -2.2478    1.9817 N.ar    1  UNL1       -0.1879
      9 C           6.9438   -3.2424    2.8392 C.ar    1  UNL1        0.0555
     10 C           8.3597   -3.4417    3.0111 C.ar    1  UNL1        0.0294
     11 C           9.2956   -2.6126    2.2962 C.ar    1  UNL1        0.1023
     12 N           7.3538   -1.4733    1.3139 N.ar    1  UNL1       -0.1521
     13 C           8.7889   -1.5273    1.3604 C.ar    1  UNL1        0.0056
     14 C           9.7248   -0.6983    0.6456 C.ar    1  UNL1       -0.0343
     15 C           9.2448    0.3301   -0.2411 C.ar    1  UNL1        0.0282
     16 N          10.1499    1.1319   -0.9324 N.ar    1  UNL1       -0.2632
     17 C           9.6856    2.1264   -1.7899 C.ar    1  UNL1        0.0282
     18 C           7.3730   -1.3280    1.1886 C.ar    1  UNL1       -0.0343
     19 C           8.8664   -4.5270    3.9469 C.ar    1  UNL1       -0.0140
     20 C          10.2823   -4.7263    4.1187 C.ar    1  UNL1       -0.0501
     21 C          10.7624   -5.7547    5.0054 C.ar    1  UNL1       -0.0375
     22 C          12.1783   -5.9540    5.1773 C.ar    1  UNL1        0.0026
     23 C          13.1142   -5.1249    4.4624 C.ar    1  UNL1       -0.0519
     24 C           7.9305   -5.3560    4.6617 C.ar    1  UNL1       -0.0533
     25 C          12.6850   -7.0393    6.1131 C.2     1  UNL1        0.0876
     26 N          11.8301   -7.7967    6.7661 N.2     1  UNL1       -0.0915
     27 O          10.4831   -7.6071    6.6026 O.2     1  UNL1       -0.4090
     28 C          14.1794   -7.2497    6.2945 C.3     1  UNL1       -0.0027
     29 C           9.7746   -6.6296    5.7598 C.3     1  UNL1       -0.0215
     30 H           0.6901   -0.8689   -0.3609 H       1  UNL1        0.0232
     31 H           0.6901    0.8477   -0.6874 H       1  UNL1        0.0232
     32 H           0.6901    0.2721    0.9624 H       1  UNL1        0.0232
     33 H           2.9234   -0.1049   -1.0197 H       1  UNL1        0.0299
     34 H           2.7167   -1.9542    0.5749 H       1  UNL1        0.0283
     35 H           2.7167   -0.8132    1.8982 H       1  UNL1        0.0283
     36 H           4.9501   -0.0492    1.2395 H       1  UNL1        0.0480
     37 H           4.9501   -1.1902   -0.0838 H       1  UNL1        0.0480
     38 H           4.1815   -2.9934    3.6062 H       1  UNL1        0.0480
     39 H           3.7699   -3.9043    2.4882 H       1  UNL1        0.0480
     40 H           3.8136    1.9709   -0.1148 H       1  UNL1        0.0283
     41 H           2.6514    2.3732    0.7432 H       1  UNL1        0.0283
     42 H           6.2731   -3.8364    3.3514 H       1  UNL1        0.0852
     43 H          10.7395   -0.8411    0.7687 H       1  UNL1        0.0639
     44 H           8.2302    0.4729   -0.3643 H       1  UNL1        0.0830
     45 H           9.7523    2.9063   -2.4624 H       1  UNL1        0.0830
     46 H           6.4478   -1.6742    1.4871 H       1  UNL1        0.0639
     47 H          10.9530   -4.1323    3.6065 H       1  UNL1        0.0627
     48 H          14.0384   -4.7772    4.1626 H       1  UNL1        0.0624
     49 H           7.0063   -5.7038    4.9616 H       1  UNL1        0.0624
     50 H           9.8742   -8.1464    7.0677 H       1  UNL1        0.3278
     51 H          14.8346   -7.6667    5.5585 H       1  UNL1        0.0333
     52 H          15.0604   -7.1761    6.8973 H       1  UNL1        0.0333
     53 H           9.1922   -6.2151    6.5560 H       1  UNL1        0.0317
     54 H           8.9510   -7.2536    5.4822 H       1  UNL1        0.0317
@<TRIPOS>BOND
     1     1     2    1
     2     2     3    1
     3     3     4    1
     4     4     5    1
     5     5     6    1
     6     6     7    1
     7     2     7    1
     8     5     8    1
     9     8     9   ar
    10     9    10   ar
    11    10    11   ar
    12    11    12   ar
    13     8    12   ar
    14    11    13    1
    15    13    14   ar
    16    14    15   ar
    17    15    16   ar
    18    16    17   ar
    19    17    18   ar
    20    13    18   ar
    21    10    19    1
    22    19    20   ar
    23    20    21   ar
    24    21    22   ar
    25    22    23   ar
    26    23    24   ar
    27    19    24   ar
    28    22    25    1
    29    25    26    2
    30    26    27    1
    31    25    28    1
    32    28    29    1
    33    21    29    1
    34     1    30    1
    35     1    31    1
    36     1    32    1
    37     2    33    1
    38     3    34    1
    39     3    35    1
    40     4    36    1
    41     4    37    1
    42     6    38    1
    43     6    39    1
    44     7    40    1
    45     7    41    1
    46     9    42    1
    47    14    43    1
    48    15    44    1
    49    17    45    1
    50    18    46    1
    51    20    47    1
    52    23    48    1
    53    24    49    1
    54    27    50    1
    55    28    51    1
    56    28    52    1
    57    29    53    1
    58    29    54    1
@<TRIPOS>MOLECULE
mol_11653652_1
 54 58 0 0 0
SMALL
GASTEIGER

@<TRIPOS>ATOM
      1 C           0.9742   -0.0128    0.0958 C.3     1  UNL1       -0.0623
      2 C           0.4676    0.5434   -1.2250 C.3     1  UNL1       -0.0409
      3 C          -1.8090    4.8917    0.7300 C.3     1  UNL1       -0.0331
      4 C          -2.0244    3.8928   -0.3952 C.3     1  UNL1        0.0299
      5 N          -1.0691    2.7842   -0.2559 N.pl3   1  UNL1       -0.2554
      6 C          -1.5591    1.4091   -0.0830 C.3     1  UNL1        0.0299
      7 C          -1.0524    0.5434   -1.2250 C.3     1  UNL1       -0.0331
      8 N           0.3270    3.0417   -0.2882 N.ar    1  UNL1       -0.1879
      9 C           4.4967    3.7278   -0.3745 C.ar    1  UNL1        0.0555
     10 C           3.0807    3.4667   -0.3417 C.ar    1  UNL1        0.0294
     11 C           2.1448    4.5528   -0.4782 C.ar    1  UNL1        0.1023
     12 N           0.7755    4.3003   -0.4465 N.ar    1  UNL1       -0.1521
     13 C           2.6515    5.9747   -0.6570 C.ar    1  UNL1        0.0056
     14 C           5.9011    7.7912   -0.8853 C.ar    1  UNL1       -0.0343
     15 C           6.8370    6.7051   -0.7488 C.ar    1  UNL1        0.0282
     16 N           6.3727    5.4022   -0.5850 N.ar    1  UNL1       -0.2632
     17 C           5.0033    5.1497   -0.5532 C.ar    1  UNL1        0.0282
     18 C           4.0675    6.2358   -0.6898 C.ar    1  UNL1       -0.0343
     19 C           2.5741    2.0448   -0.1629 C.ar    1  UNL1       -0.0140
     20 C           7.2567    0.0342   -1.1610 C.ar    1  UNL1       -0.0501
     21 C           7.9768   -1.2033   -1.0054 C.ar    1  UNL1       -0.0375
     22 C           5.8618    0.1337    0.0774 C.ar    1  UNL1        0.0026
     23 C           4.9259    1.2198   -0.0592 C.ar    1  UNL1       -0.0519
     24 C           3.5100    0.9587   -0.0264 C.ar    1  UNL1       -0.0533
     25 C           5.3551   -1.2882    0.2561 C.2     1  UNL1        0.0876
     26 N           4.0616   -1.5267    0.2861 N.2     1  UNL1       -0.0915
     27 O           3.1714   -0.4936    0.1562 O.2     1  UNL1       -0.4090
     28 C           6.3429   -2.4345    0.4002 C.3     1  UNL1       -0.0027
     29 C           7.2168   -2.5094   -0.8412 C.3     1  UNL1       -0.0215
     30 H           0.6176   -1.0137    0.2216 H       1  UNL1        0.0232
     31 H           0.6176    0.5967    0.8997 H       1  UNL1        0.0232
     32 H           2.0442   -0.0128    0.0958 H       1  UNL1        0.0232
     33 H           0.8242    1.5443   -1.3508 H       1  UNL1        0.0299
     34 H          -2.5043    5.6986    0.6286 H       1  UNL1        0.0283
     35 H          -1.9606    4.4065    1.6716 H       1  UNL1        0.0283
     36 H          -1.8727    4.3780   -1.3368 H       1  UNL1        0.0480
     37 H          -3.0229    3.5113   -0.3473 H       1  UNL1        0.0480
     38 H          -2.6291    1.4091   -0.0830 H       1  UNL1        0.0480
     39 H          -1.2024    1.0176    0.8468 H       1  UNL1        0.0480
     40 H          -1.4091    0.9348   -2.1547 H       1  UNL1        0.0283
     41 H          -1.4091   -0.4576   -1.0991 H       1  UNL1        0.0283
     42 H           4.8533    4.7287   -0.5003 H       1  UNL1        0.0852
     43 H           4.8491    7.5972   -0.8610 H       1  UNL1        0.0639
     44 H           7.8890    6.8991   -0.7732 H       1  UNL1        0.0830
     45 H           4.6467    4.1487   -0.4274 H       1  UNL1        0.0830
     46 H           4.4241    7.2367   -0.8156 H       1  UNL1        0.0639
     47 H           7.7917    0.9536   -1.2766 H       1  UNL1        0.0627
     48 H           5.2826    2.2207   -0.1850 H       1  UNL1        0.0624
     49 H           3.1533   -0.0422    0.0995 H       1  UNL1        0.0624
     50 H           2.1882   -0.6749    0.1790 H       1  UNL1        0.3278
     51 H           6.9580   -2.2693    1.2600 H       1  UNL1        0.0333
     52 H           5.8079   -3.3539    0.5158 H       1  UNL1        0.0333
     53 H           7.9121   -3.3163   -0.7398 H       1  UNL1        0.0317
     54 H           6.6016   -2.6746   -1.7010 H       1  UNL1        0.0317
@<TRIPOS>BOND
     1     1     2    1
     2     2     3    1
     3     3     4    1
     4     4     5    1
     5     5     6    1
     6     6     7    1
     7     2     7    1
     8     5     8    1
     9     8     9   ar
    10     9    10   ar
    11    10    11   ar
    12    11    12   ar
    13     8    12   ar
    14    11    13    1
    15    13    14   ar
    16    14    15   ar
    17    15    16   ar
    18    16    17   ar
    19    17    18   ar
    20    13    18   ar
    21    10    19    1
    22    19    20   ar
    23    20    21   ar
    24    21    22   ar
    25    22    23   ar
    26    23    24   ar
    27    19    24   ar
    28    22    25    1
    29    25    26    2
    30    26    27    1
    31    25    28    1
    32    28    29    1
    33    21    29    1
    34     1    30    1
    35     1    31    1
    36     1    32    1
    37     2    33    1
    38     3    34    1
    39     3    35    1
    40     4    36    1
    41     4    37    1
    42     6    38    1
    43     6    39    1
    44     7    40    1
    45     7    41    1
    46     9    42    1
    47    14    43    1
    48    15    44    1
    49    17    45    1
    50    18    46    1
    51    20    47    1
    52    23    48    1
    53    24    49    1
    54    27    50    1
    55    28    51    1
    56    28    52    1
    57    29    53    1
    58    29    54    1
@<TRIPOS>MOLECULE
mol_44587190_2
 54 58 0 0 0
SMALL
GASTEIGER

@<TRIPOS>ATOM
      1 C           0.9197   -0.0596   -0.0023 C.3     1  UNL1       -0.0623
      2 C           0.4131    1.2155    0.6518 C.3     1  UNL1       -0.0409
      3 C          -1.8635   -1.0617    4.8404 C.3     1  UNL1       -0.0331
      4 C          -2.0789    0.1357    3.9292 C.3     1  UNL1        0.0299
      5 N          -1.1236    0.0802    2.8132 N.pl3   1  UNL1       -0.2554
      6 C          -1.6136    0.0115    1.4290 C.3     1  UNL1        0.0299
      7 C          -1.1069    1.2155    0.6518 C.3     1  UNL1       -0.0331
      8 N           0.2725    0.0931    3.0724 N.ar    1  UNL1       -0.1879
      9 C           4.4422    0.1274    3.7631 C.ar    1  UNL1        0.0555
     10 C           3.0262    0.1144    3.5002 C.ar    1  UNL1        0.0294
     11 C           2.0903    0.1687    4.5935 C.ar    1  UNL1        0.1023
     12 N           0.7210    0.1560    4.3393 N.ar    1  UNL1       -0.1521
     13 C           2.5970    0.2397    6.0248 C.ar    1  UNL1        0.0056
     14 C           5.8466    0.3306    7.8534 C.ar    1  UNL1       -0.0343
     15 C           6.7825    0.2763    6.7601 C.ar    1  UNL1        0.0282
     16 N           6.3182    0.2111    5.4486 N.ar    1  UNL1       -0.2632
     17 C           4.9488    0.1985    5.1944 C.ar    1  UNL1        0.0282
     18 C           4.0129    0.2528    6.2877 C.ar    1  UNL1       -0.0343
     19 C           2.5196    0.0433    2.0689 C.ar    1  UNL1       -0.0140
     20 C           7.2022    1.1900    0.1392 C.ar    1  UNL1       -0.0501
     21 C           7.9223    1.1282   -1.1065 C.ar    1  UNL1       -0.0375
     22 C           5.8073   -0.0523    0.1451 C.ar    1  UNL1        0.0026
     23 C           4.8714    0.0020    1.2384 C.ar    1  UNL1       -0.0519
     24 C           3.4555   -0.0110    0.9756 C.ar    1  UNL1       -0.0533
     25 C           5.3006   -0.1234   -1.2862 C.2     1  UNL1        0.0876
     26 N           4.0071   -0.1353   -1.5263 N.2     1  UNL1       -0.0915
     27 O           3.1169   -0.0836   -0.4863 O.2     1  UNL1       -0.4090
     28 C           6.2884   -0.1807   -2.4401 C.3     1  UNL1       -0.0027
     29 C           7.1623    1.0629   -2.4212 C.3     1  UNL1       -0.0215
     30 H           0.5631   -0.1096   -1.0099 H       1  UNL1        0.0232
     31 H           0.5631   -0.9072    0.5448 H       1  UNL1        0.0232
     32 H           1.9897   -0.0596   -0.0023 H       1  UNL1        0.0232
     33 H           0.7697    1.2655    1.6593 H       1  UNL1        0.0299
     34 H          -2.5588   -1.0214    5.6527 H       1  UNL1        0.0283
     35 H          -2.0151   -1.9640    4.2856 H       1  UNL1        0.0283
     36 H          -1.9273    1.0379    4.4840 H       1  UNL1        0.0480
     37 H          -3.0774    0.1166    3.5452 H       1  UNL1        0.0480
     38 H          -2.6836    0.0115    1.4290 H       1  UNL1        0.0480
     39 H          -1.2569   -0.8861    0.9686 H       1  UNL1        0.0480
     40 H          -1.4636    2.1131    1.1122 H       1  UNL1        0.0283
     41 H          -1.4636    1.1654   -0.3558 H       1  UNL1        0.0283
     42 H           4.7988    0.1775    4.7706 H       1  UNL1        0.0852
     43 H           4.7946    0.3209    7.6582 H       1  UNL1        0.0639
     44 H           7.8345    0.2860    6.9554 H       1  UNL1        0.0830
     45 H           4.5922    0.1485    4.1868 H       1  UNL1        0.0830
     46 H           4.3696    0.3028    7.2953 H       1  UNL1        0.0639
     47 H           7.7372    1.2360    1.0647 H       1  UNL1        0.0627
     48 H           5.2281    0.0521    2.2460 H       1  UNL1        0.0624
     49 H           3.0988   -0.0611   -0.0320 H       1  UNL1        0.0624
     50 H           2.1337   -0.0927   -0.6688 H       1  UNL1        0.3278
     51 H           6.9035   -1.0504   -2.3401 H       1  UNL1        0.0333
     52 H           5.7534   -0.2266   -3.3656 H       1  UNL1        0.0333
     53 H           7.8576    1.0225   -3.2335 H       1  UNL1        0.0317
     54 H           6.5471    1.9326   -2.5212 H       1  UNL1        0.0317
@<TRIPOS>BOND
     1     1     2    1
     2     2     3    1
     3     3     4    1
     4     4     5    1
     5     5     6    1
     6     6     7    1
     7     2     7    1
     8     5     8    1
     9     8     9   ar
    10     9    10   ar
    11    10    11   ar
    12    11    12   ar
    13     8    12   ar
    14    11    13    1
    15    13    14   ar
    16    14    15   ar
    17    15    16   ar
    18    16    17   ar
    19    17    18   ar
    20    13    18   ar
    21    10    19    1
    22    19    20   ar
    23    20    21   ar
    24    21    22   ar
    25    22    23   ar
    26    23    24   ar
    27    19    24   ar
    28    22    25    1
    29    25    26    2
    30    26    27    1
    31    25    28    1
    32    28    29    1
    33    21    29    1
    34     1    30    1
    35     1    31    1
    36     1    32    1
    37     2    33    1
    38     3    34    1
    39     3    35    1
    40     4    36    1
    41     4    37    1
    42     6    38    1
    43     6    39    1
    44     7    40    1
    45     7    41    1
    46     9    42    1
    47    14    43    1
    48    15    44    1
    49    17    45    1
    50    18    46    1
    51    20    47    1
    52    23    48    1
    53    24    49    1
    54    27    50    1
    55    28    51    1
    56    28    52    1
    57    29    53    1
    58    29    54    1
@<TRIPOS>MOLECULE
mol_139592319_3
 54 58 0 0 0
SMALL
GASTEIGER

@<TRIPOS>ATOM
      1 C           1.0613   -0.0641    0.0462 C.3     1  UNL1       -0.0623
      2 C           0.5546    1.3678   -0.0114 C.3     1  UNL1       -0.0409
      3 C          -1.7219    1.4451    4.7556 C.3     1  UNL1       -0.0331
      4 C          -1.9373    2.0395    3.3733 C.3     1  UNL1        0.0299
      5 N          -0.9820    1.4424    2.4289 N.pl3   1  UNL1       -0.2554
      6 C          -1.4720    0.7017    1.2575 C.3     1  UNL1        0.0299
      7 C          -0.9654    1.3678   -0.0114 C.3     1  UNL1       -0.0331
      8 N           0.4140    1.5811    2.6482 N.ar    1  UNL1       -0.1879
      9 C           4.5837    1.9506    3.2327 C.ar    1  UNL1        0.0555
     10 C           3.1678    1.8100    3.0103 C.ar    1  UNL1        0.0294
     11 C           2.2319    2.3950    3.9355 C.ar    1  UNL1        0.1023
     12 N           0.8625    2.2590    3.7204 N.ar    1  UNL1       -0.1521
     13 C           2.7386    3.1608    5.1468 C.ar    1  UNL1        0.0056
     14 C           5.9882    4.1392    6.6943 C.ar    1  UNL1       -0.0343
     15 C           6.9240    3.5543    5.7690 C.ar    1  UNL1        0.0282
     16 N           6.4598    2.8525    4.6591 N.ar    1  UNL1       -0.2632
     17 C           5.0904    2.7165    4.4440 C.ar    1  UNL1        0.0282
     18 C           4.1545    3.3015    5.3692 C.ar    1  UNL1       -0.0343
     19 C           2.6611    1.0441    1.7990 C.ar    1  UNL1       -0.0140
     20 C           7.3437    1.0936   -0.4452 C.ar    1  UNL1       -0.0501
     21 C           8.0638    0.4270   -1.4994 C.ar    1  UNL1       -0.0375
     22 C           5.9489    0.0148    0.1710 C.ar    1  UNL1        0.0026
     23 C           5.0130    0.5998    1.0962 C.ar    1  UNL1       -0.0519
     24 C           3.5970    0.4591    0.8738 C.ar    1  UNL1       -0.0533
     25 C           5.4422   -0.7511   -1.0403 C.2     1  UNL1        0.0876
     26 N           4.1487   -0.8795   -1.2435 N.2     1  UNL1       -0.0915
     27 O           3.2584   -0.3231   -0.3634 O.2     1  UNL1       -0.4090
     28 C           6.4299   -1.3685   -2.0168 C.3     1  UNL1       -0.0027
     29 C           7.3038   -0.2764   -2.6120 C.3     1  UNL1       -0.0215
     30 H           0.7046   -0.6032   -0.8065 H       1  UNL1        0.0232
     31 H           0.7046   -0.5330    0.9394 H       1  UNL1        0.0232
     32 H           2.1313   -0.0641    0.0462 H       1  UNL1        0.0232
     33 H           0.9113    1.9069    0.8413 H       1  UNL1        0.0299
     34 H          -2.4172    1.8798    5.4430 H       1  UNL1        0.0283
     35 H          -1.8735    0.3867    4.7163 H       1  UNL1        0.0283
     36 H          -1.7857    3.0980    3.4126 H       1  UNL1        0.0480
     37 H          -2.9358    1.8340    3.0483 H       1  UNL1        0.0480
     38 H          -2.5420    0.7017    1.2575 H       1  UNL1        0.0480
     39 H          -1.1154   -0.3063    1.2980 H       1  UNL1        0.0480
     40 H          -1.3220    2.3758   -0.0520 H       1  UNL1        0.0283
     41 H          -1.3220    0.8287   -0.8641 H       1  UNL1        0.0283
     42 H           4.9404    2.4897    4.0854 H       1  UNL1        0.0852
     43 H           4.9362    4.0348    6.5290 H       1  UNL1        0.0639
     44 H           7.9760    3.6587    5.9343 H       1  UNL1        0.0830
     45 H           4.7337    2.1774    3.5913 H       1  UNL1        0.0830
     46 H           4.5112    3.8406    6.2219 H       1  UNL1        0.0639
     47 H           7.8787    1.5888    0.3381 H       1  UNL1        0.0627
     48 H           5.3696    1.1389    1.9489 H       1  UNL1        0.0624
     49 H           3.2404   -0.0800    0.0211 H       1  UNL1        0.0624
     50 H           2.2753   -0.4207   -0.5178 H       1  UNL1        0.3278
     51 H           7.0451   -2.0766   -1.5020 H       1  UNL1        0.0333
     52 H           5.8949   -1.8637   -2.8001 H       1  UNL1        0.0333
     53 H           7.9991   -0.7111   -3.2994 H       1  UNL1        0.0317
     54 H           6.6886    0.4317   -3.1268 H       1  UNL1        0.0317
@<TRIPOS>BOND
     1     1     2    1
     2     2     3    1
     3     3     4    1
     4     4     5    1
     5     5     6    1
     6     6     7    1
     7     2     7    1
     8     5     8    1
     9     8     9   ar
    10     9    10   ar
    11    10    11   ar
    12    11    12   ar
    13     8    12   ar
    14    11    13    1
    15    13    14   ar
    16    14    15   ar
    17    15    16   ar
    18    16    17   ar
    19    17    18   ar
    20    13    18   ar
    21    10    19    1
    22    19    20   ar
    23    20    21   ar
    24    21    22   ar
    25    22    23   ar
    26    23    24   ar
    27    19    24   ar
    28    22    25    1
    29    25    26    2
    30    26    27    1
    31    25    28    1
    32    28    29    1
    33    21    29    1
    34     1    30    1
    35     1    31    1
    36     1    32    1
    37     2    33    1
    38     3    34    1
    39     3    35    1
    40     4    36    1
    41     4    37    1
    42     6    38    1
    43     6    39    1
    44     7    40    1
    45     7    41    1
    46     9    42    1
    47    14    43    1
    48    15    44    1
    49    17    45    1
    50    18    46    1
    51    20    47    1
    52    23    48    1
    53    24    49    1
    54    27    50    1
    55    28    51    1
    56    28    52    1
    57    29    53    1
    58    29    54    1
@<TRIPOS>MOLECULE
mol_135927350_4
 54 58 0 0 0
SMALL
GASTEIGER

@<TRIPOS>ATOM
      1 C           1.0705   -0.0374   -0.0602 C.3     1  UNL1       -0.0623
      2 C           0.5639   -1.1989    0.7793 C.3     1  UNL1       -0.0409
      3 C          -1.7127   -3.8983   -3.1504 C.3     1  UNL1       -0.0331
      4 C          -1.9280   -3.6295   -1.6700 C.3     1  UNL1        0.0299
      5 N          -0.9728   -2.6099   -1.2130 N.pl3   1  UNL1       -0.2554
      6 C          -1.4628   -1.3452   -0.6462 C.3     1  UNL1        0.0299
      7 C          -0.9561   -1.1989    0.7793 C.3     1  UNL1       -0.0331
      8 N           0.4233   -2.8467   -1.3191 N.ar    1  UNL1       -0.1879
      9 C           4.5930   -3.4778   -1.6019 C.ar    1  UNL1        0.0555
     10 C           3.1770   -3.2376   -1.4943 C.ar    1  UNL1        0.0294
     11 C           2.2411   -4.2366   -1.9420 C.ar    1  UNL1        0.1023
     12 N           0.8718   -4.0043   -1.8379 N.ar    1  UNL1       -0.1521
     13 C           2.7478   -5.5443   -2.5281 C.ar    1  UNL1        0.0056
     14 C           5.9974   -7.2151   -3.2768 C.ar    1  UNL1       -0.0343
     15 C           6.9333   -6.2161   -2.8291 C.ar    1  UNL1        0.0282
     16 N           6.4690   -5.0178   -2.2921 N.ar    1  UNL1       -0.2632
     17 C           5.0996   -4.7855   -2.1880 C.ar    1  UNL1        0.0282
     18 C           4.1638   -5.7845   -2.6357 C.ar    1  UNL1       -0.0343
     19 C           2.6704   -1.9299   -0.9083 C.ar    1  UNL1       -0.0140
     20 C           7.3530   -0.7306    0.9892 C.ar    1  UNL1       -0.0501
     21 C           8.0731    0.4076    1.4993 C.ar    1  UNL1       -0.0375
     22 C           5.9581   -0.1721   -0.1205 C.ar    1  UNL1        0.0026
     23 C           5.0222   -1.1711   -0.5682 C.ar    1  UNL1       -0.0519
     24 C           3.6063   -0.9309   -0.4606 C.ar    1  UNL1       -0.0533
     25 C           5.4514    1.1356    0.4655 C.2     1  UNL1        0.0876
     26 N           4.1579    1.3550    0.5639 N.2     1  UNL1       -0.0915
     27 O           3.2677    0.4047    0.1380 O.2     1  UNL1       -0.4090
     28 C           6.4392    2.1899    0.9380 C.3     1  UNL1       -0.0027
     29 C           7.3131    1.6089    2.0376 C.3     1  UNL1       -0.0215
     30 H           0.7139    0.8831    0.3524 H       1  UNL1        0.0232
     31 H           0.7139   -0.1404   -1.0637 H       1  UNL1        0.0232
     32 H           2.1405   -0.0374   -0.0602 H       1  UNL1        0.0232
     33 H           0.9205   -2.1195    0.3668 H       1  UNL1        0.0299
     34 H          -2.4080   -4.6405   -3.4830 H       1  UNL1        0.0283
     35 H          -1.8643   -2.9945   -3.7028 H       1  UNL1        0.0283
     36 H          -1.7764   -4.5333   -1.1176 H       1  UNL1        0.0480
     37 H          -2.9266   -3.2787   -1.5127 H       1  UNL1        0.0480
     38 H          -2.5328   -1.3452   -0.6462 H       1  UNL1        0.0480
     39 H          -1.1061   -0.5276   -1.2372 H       1  UNL1        0.0480
     40 H          -1.3128   -2.0164    1.3703 H       1  UNL1        0.0283
     41 H          -1.3128   -0.2783    1.1919 H       1  UNL1        0.0283
     42 H           4.9497   -4.3984   -2.0145 H       1  UNL1        0.0852
     43 H           4.9454   -7.0366   -3.1968 H       1  UNL1        0.0639
     44 H           7.9853   -6.3946   -2.9091 H       1  UNL1        0.0830
     45 H           4.7430   -3.8649   -1.7755 H       1  UNL1        0.0830
     46 H           4.5204   -6.7051   -3.0482 H       1  UNL1        0.0639
     47 H           7.8880   -1.5762    0.6103 H       1  UNL1        0.0627
     48 H           5.3789   -2.0917   -0.9808 H       1  UNL1        0.0624
     49 H           3.2496   -0.0103   -0.0480 H       1  UNL1        0.0624
     50 H           2.2845    0.5715    0.2127 H       1  UNL1        0.3278
     51 H           7.0544    2.4955    0.1176 H       1  UNL1        0.0333
     52 H           5.9042    3.0355    1.3170 H       1  UNL1        0.0333
     53 H           8.0084    2.3510    2.3702 H       1  UNL1        0.0317
     54 H           6.6979    1.3033    2.8581 H       1  UNL1        0.0317
@<TRIPOS>BOND
     1     1     2    1
     2     2     3    1
     3     3     4    1
     4     4     5    1
     5     5     6    1
     6     6     7    1
     7     2     7    1
     8     5     8    1
     9     8     9   ar
    10     9    10   ar
    11    10    11   ar
    12    11    12   ar
    13     8    12   ar
    14    11    13    1
    15    13    14   ar
    16    14    15   ar
    17    15    16   ar
    18    16    17   ar
    19    17    18   ar
    20    13    18   ar
    21    10    19    1
    22    19    20   ar
    23    20    21   ar
    24    21    22   ar
    25    22    23   ar
    26    23    24   ar
    27    19    24   ar
    28    22    25    1
    29    25    26    2
    30    26    27    1
    31    25    28    1
    32    28    29    1
    33    21    29    1
    34     1    30    1
    35     1    31    1
    36     1    32    1
    37     2    33    1
    38     3    34    1
    39     3    35    1
    40     4    36    1
    41     4    37    1
    42     6    38    1
    43     6    39    1
    44     7    40    1
    45     7    41    1
    46     9    42    1
    47    14    43    1
    48    15    44    1
    49    17    45    1
    50    18    46    1
    51    20    47    1
    52    23    48    1
    53    24    49    1
    54    27    50    1
    55    28    51    1
    56    28    52    1
    57    29    53    1
    58    29    54    1
@<TRIPOS>MOLECULE
mol_91896025_5
 54 58 0 0 0
SMALL
GASTEIGER

@<TRIPOS>ATOM
      1 C           1.0079    0.0170    0.0982 C.3     1  UNL1       -0.0623
      2 C           0.5013   -1.1902   -0.6741 C.3     1  UNL1       -0.0409
      3 C          -1.7753    1.4749   -4.6273 C.3     1  UNL1       -0.0331
      4 C          -1.9906    0.1963   -3.8340 C.3     1  UNL1        0.0299
      5 N          -1.0354    0.1454   -2.7178 N.pl3   1  UNL1       -0.2554
      6 C          -1.5254    0.0823   -1.3334 C.3     1  UNL1        0.0299
      7 C          -1.0187   -1.1902   -0.6741 C.3     1  UNL1       -0.0331
      8 N           0.3607    0.1573   -2.9771 N.ar    1  UNL1       -0.1879
      9 C           4.5304    0.1888   -3.6679 C.ar    1  UNL1        0.0555
     10 C           3.1144    0.1768   -3.4050 C.ar    1  UNL1        0.0294
     11 C           2.1785    0.2267   -4.4985 C.ar    1  UNL1        0.1023
     12 N           0.8092    0.2151   -4.2442 N.ar    1  UNL1       -0.1521
     13 C           2.6852    0.2920   -5.9301 C.ar    1  UNL1        0.0056
     14 C           5.9348    0.3754   -7.7590 C.ar    1  UNL1       -0.0343
     15 C           6.8707    0.3255   -6.6655 C.ar    1  UNL1        0.0282
     16 N           6.4064    0.2657   -5.3537 N.ar    1  UNL1       -0.2632
     17 C           5.0370    0.2541   -5.0994 C.ar    1  UNL1        0.0282
     18 C           4.1012    0.3039   -6.1930 C.ar    1  UNL1       -0.0343
     19 C           2.6078    0.1115   -1.9734 C.ar    1  UNL1       -0.0140
     20 C           7.2904   -1.2136   -0.1615 C.ar    1  UNL1       -0.0501
     21 C           8.0105   -1.2704    1.0845 C.ar    1  UNL1       -0.0375
     22 C           5.8955    0.0237   -0.0492 C.ar    1  UNL1        0.0026
     23 C           4.9596    0.0736   -1.1428 C.ar    1  UNL1       -0.0519
     24 C           3.5437    0.0616   -0.8799 C.ar    1  UNL1       -0.0533
     25 C           5.3888   -0.0416    1.3824 C.2     1  UNL1        0.0876
     26 N           4.0953   -0.0526    1.6225 N.2     1  UNL1       -0.0915
     27 O           3.2051   -0.0051    0.5823 O.2     1  UNL1       -0.4090
     28 C           6.3766   -0.0943    2.5365 C.3     1  UNL1       -0.0027
     29 C           7.2505   -1.3304    2.3995 C.3     1  UNL1       -0.0215
     30 H           0.6513   -0.0290    1.1060 H       1  UNL1        0.0232
     31 H           0.6513    0.9127   -0.3658 H       1  UNL1        0.0232
     32 H           2.0779    0.0170    0.0982 H       1  UNL1        0.0232
     33 H           0.8579   -1.1442   -1.6819 H       1  UNL1        0.0299
     34 H          -2.4706    1.5120   -5.4397 H       1  UNL1        0.0283
     35 H          -1.9269    2.3203   -3.9892 H       1  UNL1        0.0283
     36 H          -1.8390   -0.6491   -4.4721 H       1  UNL1        0.0480
     37 H          -2.9892    0.1788   -3.4499 H       1  UNL1        0.0480
     38 H          -2.5954    0.0823   -1.3334 H       1  UNL1        0.0480
     39 H          -1.1687    0.9320   -0.7897 H       1  UNL1        0.0480
     40 H          -1.3754   -2.0399   -1.2178 H       1  UNL1        0.0283
     41 H          -1.3754   -1.2361    0.3336 H       1  UNL1        0.0283
     42 H           4.8871    0.2347   -4.6756 H       1  UNL1        0.0852
     43 H           4.8828    0.3665   -7.5637 H       1  UNL1        0.0639
     44 H           7.9227    0.3344   -6.8608 H       1  UNL1        0.0830
     45 H           4.6804    0.2081   -4.0917 H       1  UNL1        0.0830
     46 H           4.4578    0.3499   -7.2007 H       1  UNL1        0.0639
     47 H           7.8254   -1.1713   -1.0872 H       1  UNL1        0.0627
     48 H           5.3163    0.1195   -2.1505 H       1  UNL1        0.0624
     49 H           3.1870    0.0156    0.1279 H       1  UNL1        0.0624
     50 H           2.2219   -0.0134    0.7648 H       1  UNL1        0.3278
     51 H           6.9918    0.7811    2.5197 H       1  UNL1        0.0333
     52 H           5.8416   -0.1365    3.4622 H       1  UNL1        0.0333
     53 H           7.9458   -1.3674    3.2119 H       1  UNL1        0.0317
     54 H           6.6353   -2.2057    2.4163 H       1  UNL1        0.0317
@<TRIPOS>BOND
     1     1     2    1
     2     2     3    1
     3     3     4    1
     4     4     5    1
     5     5     6    1
     6     6     7    1
     7     2     7    1
     8     5     8    1
     9     8     9   ar
    10     9    10   ar
    11    10    11   ar
    12    11    12   ar
    13     8    12   ar
    14    11    13    1
    15    13    14   ar
    16    14    15   ar
    17    15    16   ar
    18    16    17   ar
    19    17    18   ar
    20    13    18   ar
    21    10    19    1
    22    19    20   ar
    23    20    21   ar
    24    21    22   ar
    25    22    23   ar
    26    23    24   ar
    27    19    24   ar
    28    22    25    1
    29    25    26    2
    30    26    27    1
    31    25    28    1
    32    28    29    1
    33    21    29    1
    34     1    30    1
    35     1    31    1
    36     1    32    1
    37     2    33    1
    38     3    34    1
    39     3    35    1
    40     4    36    1
    41     4    37    1
    42     6    38    1
    43     6    39    1
    44     7    40    1
    45     7    41    1
    46     9    42    1
    47    14    43    1
    48    15    44    1
    49    17    45    1
    50    18    46    1
    51    20    47    1
    52    23    48    1
    53    24    49    1
    54    27    50    1
    55    28    51    1
    56    28    52    1
    57    29    53    1
    58    29    54    1
@<TRIPOS>MOLECULE
mol_91896028_6
 54 58 0 0 0
SMALL
GASTEIGER

@<TRIPOS>ATOM
      1 C           0.9422    0.0795    0.0183 C.3     1  UNL1       -0.0623
      2 C           0.4355    0.9518   -1.1187 C.3     1  UNL1       -0.0409
      3 C          -1.8411    4.6637    1.8733 C.3     1  UNL1       -0.0331
      4 C          -2.0564    3.9822    0.5319 C.3     1  UNL1        0.0299
      5 N          -1.1012    2.8744    0.3861 N.pl3   1  UNL1       -0.2554
      6 C          -1.5912    1.5003    0.2053 C.3     1  UNL1        0.0299
      7 C          -1.0845    0.9518   -1.1187 C.3     1  UNL1       -0.0331
      8 N           0.2949    3.1317    0.4199 N.ar    1  UNL1       -0.1879
      9 C           4.4646    3.8173    0.5102 C.ar    1  UNL1        0.0555
     10 C           3.0487    3.5564    0.4758 C.ar    1  UNL1        0.0294
     11 C           2.1128    4.6417    0.6187 C.ar    1  UNL1        0.1023
     12 N           0.7434    4.3893    0.5854 N.ar    1  UNL1       -0.1521
     13 C           2.6194    6.0625    0.8056 C.ar    1  UNL1        0.0056
     14 C           5.8690    7.8777    1.0445 C.ar    1  UNL1       -0.0343
     15 C           6.8049    6.7924    0.9017 C.ar    1  UNL1        0.0282
     16 N           6.3406    5.4905    0.7303 N.ar    1  UNL1       -0.2632
     17 C           4.9713    5.2381    0.6971 C.ar    1  UNL1        0.0282
     18 C           4.0354    6.3234    0.8400 C.ar    1  UNL1       -0.0343
     19 C           2.5420    2.1355    0.2889 C.ar    1  UNL1       -0.0140
     20 C           7.2246    0.4430   -1.1857 C.ar    1  UNL1       -0.0501
     21 C           7.9447   -0.7935   -1.3484 C.ar    1  UNL1       -0.0375
     22 C           5.8297    0.2259    0.0375 C.ar    1  UNL1        0.0026
     23 C           4.8938    1.3112    0.1804 C.ar    1  UNL1       -0.0519
     24 C           3.4779    1.0502    0.1460 C.ar    1  UNL1       -0.0533
     25 C           5.3231   -1.1950   -0.1494 C.2     1  UNL1        0.0876
     26 N           4.0296   -1.4333   -0.1808 N.2     1  UNL1       -0.0915
     27 O           3.1393   -0.4009   -0.0449 O.2     1  UNL1       -0.4090
     28 C           6.3108   -2.3404   -0.3002 C.3     1  UNL1       -0.0027
     29 C           7.1847   -2.0986   -1.5201 C.3     1  UNL1       -0.0215
     30 H           0.5855   -0.9207   -0.1133 H       1  UNL1        0.0232
     31 H           0.5855    0.4656    0.9503 H       1  UNL1        0.0232
     32 H           2.0122    0.0795    0.0183 H       1  UNL1        0.0232
     33 H           0.7922    1.9520   -0.9871 H       1  UNL1        0.0299
     34 H          -2.5364    5.4700    1.9794 H       1  UNL1        0.0283
     35 H          -1.9927    3.9560    2.6614 H       1  UNL1        0.0283
     36 H          -1.9048    4.6899   -0.2562 H       1  UNL1        0.0480
     37 H          -3.0550    3.6010    0.4817 H       1  UNL1        0.0480
     38 H          -2.6612    1.5003    0.2053 H       1  UNL1        0.0480
     39 H          -1.2345    0.8862    1.0056 H       1  UNL1        0.0480
     40 H          -1.4412    1.5659   -1.9191 H       1  UNL1        0.0283
     41 H          -1.4412   -0.0483   -1.2503 H       1  UNL1        0.0283
     42 H           4.8213    4.8175    0.6418 H       1  UNL1        0.0852
     43 H           4.8170    7.6838    1.0190 H       1  UNL1        0.0639
     44 H           7.8569    6.9862    0.9272 H       1  UNL1        0.0830
     45 H           4.6146    4.2379    0.5655 H       1  UNL1        0.0830
     46 H           4.3920    7.3236    0.9716 H       1  UNL1        0.0639
     47 H           7.7596    1.3618   -1.0648 H       1  UNL1        0.0627
     48 H           5.2505    2.3113    0.3120 H       1  UNL1        0.0624
     49 H           3.1212    0.0501    0.0144 H       1  UNL1        0.0624
     50 H           2.1561   -0.5821   -0.0688 H       1  UNL1        0.3278
     51 H           6.9260   -2.3982    0.5734 H       1  UNL1        0.0333
     52 H           5.7758   -3.2591   -0.4211 H       1  UNL1        0.0333
     53 H           7.8800   -2.9050   -1.6262 H       1  UNL1        0.0317
     54 H           6.5695   -2.0409   -2.3937 H       1  UNL1        0.0317
@<TRIPOS>BOND
     1     1     2    1
     2     2     3    1
     3     3     4    1
     4     4     5    1
     5     5     6    1
     6     6     7    1
     7     2     7    1
     8     5     8    1
     9     8     9   ar
    10     9    10   ar
    11    10    11   ar
    12    11    12   ar
    13     8    12   ar
    14    11    13    1
    15    13    14   ar
    16    14    15   ar
    17    15    16   ar
    18    16    17   ar
    19    17    18   ar
    20    13    18   ar
    21    10    19    1
    22    19    20   ar
    23    20    21   ar
    24    21    22   ar
    25    22    23   ar
    26    23    24   ar
    27    19    24   ar
    28    22    25    1
    29    25    26    2
    30    26    27    1
    31    25    28    1
    32    28    29    1
    33    21    29    1
    34     1    30    1
    35     1    31    1
    36     1    32    1
    37     2    33    1
    38     3    34    1
    39     3    35    1
    40     4    36    1
    41     4    37    1
    42     6    38    1
    43     6    39    1
    44     7    40    1
    45     7    41    1
    46     9    42    1
    47    14    43    1
    48    15    44    1
    49    17    45    1
    50    18    46    1
    51    20    47    1
    52    23    48    1
    53    24    49    1
    54    27    50    1
    55    28    51    1
    56    28    52    1
    57    29    53    1
    58    29    54    1
@<TRIPOS>MOLECULE
mol_11624965_7
 54 58 0 0 0
SMALL
GASTEIGER

@<TRIPOS>ATOM
      1 C           1.0681   -0.0214   -0.0700 C.3     1  UNL1       -0.0623
      2 C           0.5614   -1.3988   -0.4656 C.3     1  UNL1       -0.0409
      3 C          -1.7151    0.0268   -5.0151 C.3     1  UNL1       -0.0331
      4 C          -1.9305   -0.9721   -3.8898 C.3     1  UNL1        0.0299
      5 N          -0.9752   -0.7022   -2.8056 N.pl3   1  UNL1       -0.2554
      6 C          -1.4652   -0.3675   -1.4607 C.3     1  UNL1        0.0299
      7 C          -0.9586   -1.3988   -0.4656 C.3     1  UNL1       -0.0331
      8 N           0.4208   -0.7649   -3.0574 N.ar    1  UNL1       -0.1879
      9 C           4.5905   -0.9319   -3.7284 C.ar    1  UNL1        0.0555
     10 C           3.1746   -0.8683   -3.4731 C.ar    1  UNL1        0.0294
     11 C           2.2387   -1.1327   -4.5353 C.ar    1  UNL1        0.1023
     12 N           0.8693   -1.0712   -4.2883 N.ar    1  UNL1       -0.1521
     13 C           2.7454   -1.4788   -5.9260 C.ar    1  UNL1        0.0056
     14 C           5.9949   -1.9210   -7.7026 C.ar    1  UNL1       -0.0343
     15 C           6.9308   -1.6566   -6.6404 C.ar    1  UNL1        0.0282
     16 N           6.4666   -1.3395   -5.3661 N.ar    1  UNL1       -0.2632
     17 C           5.0972   -1.2780   -5.1191 C.ar    1  UNL1        0.0282
     18 C           4.1613   -1.5424   -6.1814 C.ar    1  UNL1       -0.0343
     19 C           2.6679   -0.5222   -2.0824 C.ar    1  UNL1       -0.0140
     20 C           7.3505   -1.2749    0.0324 C.ar    1  UNL1       -0.0501
     21 C           8.0706   -0.9736    1.2427 C.ar    1  UNL1       -0.0375
     22 C           5.9557   -0.0571   -0.2133 C.ar    1  UNL1        0.0026
     23 C           5.0198   -0.3214   -1.2755 C.ar    1  UNL1       -0.0519
     24 C           3.6038   -0.2579   -1.0202 C.ar    1  UNL1       -0.0533
     25 C           5.4490    0.2890    1.1774 C.2     1  UNL1        0.0876
     26 N           4.1555    0.3471    1.4107 N.2     1  UNL1       -0.0915
     27 O           3.2652    0.0956    0.4002 O.2     1  UNL1       -0.4090
     28 C           6.4367    0.5681    2.2985 C.3     1  UNL1       -0.0027
     29 C           7.3106   -0.6557    2.5201 C.3     1  UNL1       -0.0215
     30 H           0.7114    0.2222    0.9089 H       1  UNL1        0.0232
     31 H           0.7114    0.7046   -0.7705 H       1  UNL1        0.0232
     32 H           2.1381   -0.0214   -0.0700 H       1  UNL1        0.0232
     33 H           0.9181   -1.6424   -1.4446 H       1  UNL1        0.0299
     34 H          -2.4105   -0.1696   -5.8043 H       1  UNL1        0.0283
     35 H          -1.8667    1.0192   -4.6450 H       1  UNL1        0.0283
     36 H          -1.7789   -1.9645   -4.2600 H       1  UNL1        0.0480
     37 H          -2.9290   -0.8792   -3.5167 H       1  UNL1        0.0480
     38 H          -2.5352   -0.3675   -1.4607 H       1  UNL1        0.0480
     39 H          -1.1086    0.6021   -1.1822 H       1  UNL1        0.0480
     40 H          -1.3152   -2.3684   -0.7441 H       1  UNL1        0.0283
     41 H          -1.3152   -1.1552    0.5133 H       1  UNL1        0.0283
     42 H           4.9472   -1.1755   -4.7074 H       1  UNL1        0.0852
     43 H           4.9430   -1.8738   -7.5129 H       1  UNL1        0.0639
     44 H           7.9828   -1.7038   -6.8301 H       1  UNL1        0.0830
     45 H           4.7405   -1.0344   -4.1402 H       1  UNL1        0.0830
     46 H           4.5180   -1.7860   -7.1603 H       1  UNL1        0.0639
     47 H           7.8855   -1.4987   -0.8669 H       1  UNL1        0.0627
     48 H           5.3764   -0.5651   -2.2545 H       1  UNL1        0.0624
     49 H           3.2471   -0.0142   -0.0412 H       1  UNL1        0.0624
     50 H           2.2821    0.1398    0.5775 H       1  UNL1        0.3278
     51 H           7.0519    1.4022    2.0325 H       1  UNL1        0.0333
     52 H           5.9017    0.7919    3.1977 H       1  UNL1        0.0333
     53 H           8.0059   -0.4593    3.3093 H       1  UNL1        0.0317
     54 H           6.6954   -1.4898    2.7861 H       1  UNL1        0.0317
@<TRIPOS>BOND
     1     1     2    1
     2     2     3    1
     3     3     4    1
     4     4     5    1
     5     5     6    1
     6     6     7    1
     7     2     7    1
     8     5     8    1
     9     8     9   ar
    10     9    10   ar
    11    10    11   ar
    12    11    12   ar
    13     8    12   ar
    14    11    13    1
    15    13    14   ar
    16    14    15   ar
    17    15    16   ar
    18    16    17   ar
    19    17    18   ar
    20    13    18   ar
    21    10    19    1
    22    19    20   ar
    23    20    21   ar
    24    21    22   ar
    25    22    23   ar
    26    23    24   ar
    27    19    24   ar
    28    22    25    1
    29    25    26    2
    30    26    27    1
    31    25    28    1
    32    28    29    1
    33    21    29    1
    34     1    30    1
    35     1    31    1
    36     1    32    1
    37     2    33    1
    38     3    34    1
    39     3    35    1
    40     4    36    1
    41     4    37    1
    42     6    38    1
    43     6    39    1
    44     7    40    1
    45     7    41    1
    46     9    42    1
    47    14    43    1
    48    15    44    1
    49    17    45    1
    50    18    46    1
    51    20    47    1
    52    23    48    1
    53    24    49    1
    54    27    50    1
    55    28    51    1
    56    28    52    1
    57    29    53    1
    58    29    54    1
@<TRIPOS>MOLECULE
mol_54586539_8
 54 58 0 0 0
SMALL
GASTEIGER

@<TRIPOS>ATOM
      1 C           0.9295    0.0707    0.0051 C.3     1  UNL1       -0.0623
      2 C           0.4228   -1.3612    0.0626 C.3     1  UNL1       -0.0409
      3 C          -1.8538   -1.4381   -4.7044 C.3     1  UNL1       -0.0331
      4 C          -2.0691   -2.0326   -3.3221 C.3     1  UNL1        0.0299
      5 N          -1.1139   -1.4356   -2.3777 N.pl3   1  UNL1       -0.2554
      6 C          -1.6039   -0.6950   -1.2062 C.3     1  UNL1        0.0299
      7 C          -1.0972   -1.3612    0.0626 C.3     1  UNL1       -0.0331
      8 N           0.2822   -1.5742   -2.5970 N.ar    1  UNL1       -0.1879
      9 C           4.4519   -1.9437   -3.1816 C.ar    1  UNL1        0.0555
     10 C           3.0360   -1.8031   -2.9591 C.ar    1  UNL1        0.0294
     11 C           2.1001   -2.3880   -3.8844 C.ar    1  UNL1        0.1023
     12 N           0.7307   -2.2520   -3.6693 N.ar    1  UNL1       -0.1521
     13 C           2.6067   -3.1537   -5.0957 C.ar    1  UNL1        0.0056
     14 C           5.8563   -4.1320   -6.6433 C.ar    1  UNL1       -0.0343
     15 C           6.7922   -3.5471   -5.7180 C.ar    1  UNL1        0.0282
     16 N           6.3279   -2.8454   -4.6080 N.ar    1  UNL1       -0.2632
     17 C           4.9586   -2.7095   -4.3929 C.ar    1  UNL1        0.0282
     18 C           4.0227   -3.2944   -5.3182 C.ar    1  UNL1       -0.0343
     19 C           2.5293   -1.0374   -1.7478 C.ar    1  UNL1       -0.0140
     20 C           7.2119   -1.0870    0.4964 C.ar    1  UNL1       -0.0501
     21 C           7.9320   -0.4206    1.5507 C.ar    1  UNL1       -0.0375
     22 C           5.8170   -0.0082   -0.1196 C.ar    1  UNL1        0.0026
     23 C           4.8811   -0.5931   -1.0449 C.ar    1  UNL1       -0.0519
     24 C           3.4652   -0.4525   -0.8225 C.ar    1  UNL1       -0.0533
     25 C           5.3104    0.7575    1.0917 C.2     1  UNL1        0.0876
     26 N           4.0169    0.8860    1.2949 N.2     1  UNL1       -0.0915
     27 O           3.1266    0.3296    0.4147 O.2     1  UNL1       -0.4090
     28 C           6.2981    1.3749    2.0683 C.3     1  UNL1       -0.0027
     29 C           7.1720    0.2828    2.6634 C.3     1  UNL1       -0.0215
     30 H           0.5728    0.6097    0.8579 H       1  UNL1        0.0232
     31 H           0.5728    0.5397   -0.8880 H       1  UNL1        0.0232
     32 H           1.9995    0.0707    0.0051 H       1  UNL1        0.0232
     33 H           0.7795   -1.9002   -0.7901 H       1  UNL1        0.0299
     34 H          -2.5491   -1.8727   -5.3918 H       1  UNL1        0.0283
     35 H          -2.0054   -0.3796   -4.6650 H       1  UNL1        0.0283
     36 H          -1.9175   -3.0910   -3.3615 H       1  UNL1        0.0480
     37 H          -3.0677   -1.8271   -2.9972 H       1  UNL1        0.0480
     38 H          -2.6739   -0.6950   -1.2062 H       1  UNL1        0.0480
     39 H          -1.2472    0.3130   -1.2466 H       1  UNL1        0.0480
     40 H          -1.4539   -2.3692    0.1031 H       1  UNL1        0.0283
     41 H          -1.4539   -0.8222    0.9153 H       1  UNL1        0.0283
     42 H           4.8086   -2.4828   -4.0343 H       1  UNL1        0.0852
     43 H           4.8043   -4.0275   -6.4781 H       1  UNL1        0.0639
     44 H           7.8442   -3.6516   -5.8833 H       1  UNL1        0.0830
     45 H           4.6019   -2.1704   -3.5402 H       1  UNL1        0.0830
     46 H           4.3793   -3.8334   -6.1709 H       1  UNL1        0.0639
     47 H           7.7469   -1.5822   -0.2869 H       1  UNL1        0.0627
     48 H           5.2378   -1.1321   -1.8976 H       1  UNL1        0.0624
     49 H           3.1085    0.0866    0.0303 H       1  UNL1        0.0624
     50 H           2.1434    0.4273    0.5692 H       1  UNL1        0.3278
     51 H           6.9133    2.0831    1.5536 H       1  UNL1        0.0333
     52 H           5.7631    1.8700    2.8516 H       1  UNL1        0.0333
     53 H           7.8673    0.7173    3.3508 H       1  UNL1        0.0317
     54 H           6.5568   -0.4254    3.1781 H       1  UNL1        0.0317
@<TRIPOS>BOND
     1     1     2    1
     2     2     3    1
     3     3     4    1
     4     4     5    1
     5     5     6    1
     6     6     7    1
     7     2     7    1
     8     5     8    1
     9     8     9   ar
    10     9    10   ar
    11    10    11   ar
    12    11    12   ar
    13     8    12   ar
    14    11    13    1
    15    13    14   ar
    16    14    15   ar
    17    15    16   ar
    18    16    17   ar
    19    17    18   ar
    20    13    18   ar
    21    10    19    1
    22    19    20   ar
    23    20    21   ar
    24    21    22   ar
    25    22    23   ar
    26    23    24   ar
    27    19    24   ar
    28    22    25    1
    29    25    26    2
    30    26    27    1
    31    25    28    1
    32    28    29    1
    33    21    29    1
    34     1    30    1
    35     1    31    1
    36     1    32    1
    37     2    33    1
    38     3    34    1
    39     3    35    1
    40     4    36    1
    41     4    37    1
    42     6    38    1
    43     6    39    1
    44     7    40    1
    45     7    41    1
    46     9    42    1
    47    14    43    1
    48    15    44    1
    49    17    45    1
    50    18    46    1
    51    20    47    1
    52    23    48    1
    53    24    49    1
    54    27    50    1
    55    28    51    1
    56    28    52    1
    57    29    53    1
    58    29    54    1
@<TRIPOS>MOLECULE
mol_11717001_9
 54 58 0 0 0
SMALL
GASTEIGER

@<TRIPOS>ATOM
      1 C           1.0279   -0.0461   -0.0842 C.3     1  UNL1       -0.0623
      2 C           0.5212   -0.1317   -1.5147 C.3     1  UNL1       -0.0409
      3 C          -1.7554    4.6328   -1.6854 C.3     1  UNL1       -0.0331
      4 C          -1.9707    3.2392   -2.2525 C.3     1  UNL1        0.0299
      5 N          -1.0155    2.3066   -1.6371 N.pl3   1  UNL1       -0.2554
      6 C          -1.5055    1.1499   -0.8736 C.3     1  UNL1        0.0299
      7 C          -0.9988   -0.1317   -1.5147 C.3     1  UNL1       -0.0331
      8 N           0.3806    2.5232   -1.7800 N.ar    1  UNL1       -0.1879
      9 C           4.5503    3.1004   -2.1609 C.ar    1  UNL1        0.0555
     10 C           3.1344    2.8807   -2.0160 C.ar    1  UNL1        0.0294
     11 C           2.1985    3.7943   -2.6190 C.ar    1  UNL1        0.1023
     12 N           0.8291    3.5819   -2.4788 N.ar    1  UNL1       -0.1521
     13 C           2.7051    4.9904   -3.4084 C.ar    1  UNL1        0.0056
     14 C           5.9547    6.5184   -4.4169 C.ar    1  UNL1       -0.0343
     15 C           6.8906    5.6048   -3.8139 C.ar    1  UNL1        0.0282
     16 N           6.4263    4.5088   -3.0906 N.ar    1  UNL1       -0.2632
     17 C           5.0570    4.2964   -2.9504 C.ar    1  UNL1        0.0282
     18 C           4.1211    5.2100   -3.5533 C.ar    1  UNL1       -0.0343
     19 C           2.6277    1.6847   -1.2266 C.ar    1  UNL1       -0.0140
     20 C           7.3103   -0.5600   -1.2321 C.ar    1  UNL1       -0.0501
     21 C           8.0304   -1.6010   -0.5450 C.ar    1  UNL1       -0.0375
     22 C           5.9154    0.0771   -0.1656 C.ar    1  UNL1        0.0026
     23 C           4.9795    0.9907   -0.7686 C.ar    1  UNL1       -0.0519
     24 C           3.5636    0.7710   -0.6236 C.ar    1  UNL1       -0.0533
     25 C           5.4088   -1.1190    0.6238 C.2     1  UNL1        0.0876
     26 N           4.1153   -1.3196    0.7563 N.2     1  UNL1       -0.0915
     27 O           3.2250   -0.4505    0.1827 O.2     1  UNL1       -0.4090
     28 C           6.3965   -2.0832    1.2602 C.3     1  UNL1       -0.0027
     29 C           7.2704   -2.6997    0.1801 C.3     1  UNL1       -0.0215
     30 H           0.6712   -0.8881    0.4715 H       1  UNL1        0.0232
     31 H           0.6712    0.8561    0.3671 H       1  UNL1        0.0232
     32 H           2.0979   -0.0461   -0.0842 H       1  UNL1        0.0232
     33 H           0.8779    0.7102   -2.0704 H       1  UNL1        0.0299
     34 H          -2.4507    5.3116   -2.1334 H       1  UNL1        0.0283
     35 H          -1.9070    4.6143   -0.6263 H       1  UNL1        0.0283
     36 H          -1.8191    3.2577   -3.3116 H       1  UNL1        0.0480
     37 H          -2.9693    2.9183   -2.0408 H       1  UNL1        0.0480
     38 H          -2.5755    1.1499   -0.8736 H       1  UNL1        0.0480
     39 H          -1.1488    1.2102    0.1334 H       1  UNL1        0.0480
     40 H          -1.3555   -0.1920   -2.5217 H       1  UNL1        0.0283
     41 H          -1.3555   -0.9737   -0.9590 H       1  UNL1        0.0283
     42 H           4.9070    3.9423   -2.7166 H       1  UNL1        0.0852
     43 H           4.9027    6.3552   -4.3092 H       1  UNL1        0.0639
     44 H           7.9426    5.7680   -3.9216 H       1  UNL1        0.0830
     45 H           4.7003    3.4544   -2.3947 H       1  UNL1        0.0830
     46 H           4.4777    6.0520   -4.1090 H       1  UNL1        0.0639
     47 H           7.8453    0.2133   -1.7425 H       1  UNL1        0.0627
     48 H           5.3362    1.8326   -1.3243 H       1  UNL1        0.0624
     49 H           3.2069   -0.0709   -0.0679 H       1  UNL1        0.0624
     50 H           2.2418   -0.6031    0.2833 H       1  UNL1        0.3278
     51 H           7.0117   -1.5547    1.9582 H       1  UNL1        0.0333
     52 H           5.8615   -2.8566    1.7707 H       1  UNL1        0.0333
     53 H           7.9657   -3.3784    0.6281 H       1  UNL1        0.0317
     54 H           6.6552   -3.2282   -0.5178 H       1  UNL1        0.0317
@<TRIPOS>BOND
     1     1     2    1
     2     2     3    1
     3     3     4    1
     4     4     5    1
     5     5     6    1
     6     6     7    1
     7     2     7    1
     8     5     8    1
     9     8     9   ar
    10     9    10   ar
    11    10    11   ar
    12    11    12   ar
    13     8    12   ar
    14    11    13    1
    15    13    14   ar
    16    14    15   ar
    17    15    16   ar
    18    16    17   ar
    19    17    18   ar
    20    13    18   ar
    21    10    19    1
    22    19    20   ar
    23    20    21   ar
    24    21    22   ar
    25    22    23   ar
    26    23    24   ar
    27    19    24   ar
    28    22    25    1
    29    25    26    2
    30    26    27    1
    31    25    28    1
    32    28    29    1
    33    21    29    1
    34     1    30    1
    35     1    31    1
    36     1    32    1
    37     2    33    1
    38     3    34    1
    39     3    35    1
    40     4    36    1
    41     4    37    1
    42     6    38    1
    43     6    39    1
    44     7    40    1
    45     7    41    1
    46     9    42    1
    47    14    43    1
    48    15    44    1
    49    17    45    1
    50    18    46    1
    51    20    47    1
    52    23    48    1
    53    24    49    1
    54    27    50    1
    55    28    51    1
    56    28    52    1
    57    29    53    1
    58    29    54    1
@<TRIPOS>MOLECULE
mol_135438492_10
 54 58 0 0 0
SMALL
GASTEIGER

@<TRIPOS>ATOM
      1 C           0.9362   -0.0457   -0.0620 C.3     1  UNL1       -0.0623
      2 C           0.4295    1.2038   -0.7638 C.3     1  UNL1       -0.0409
      3 C          -1.8470    3.4382    3.4478 C.3     1  UNL1       -0.0331
      4 C          -2.0624    3.3398    1.9463 C.3     1  UNL1        0.0299
      5 N          -1.1071    2.3788    1.3763 N.pl3   1  UNL1       -0.2554
      6 C          -1.5971    1.1868    0.6692 C.3     1  UNL1        0.0299
      7 C          -1.0905    1.2038   -0.7638 C.3     1  UNL1       -0.0331
      8 N           0.2889    2.6020    1.5087 N.ar    1  UNL1       -0.1879
      9 C           4.4586    3.1967    1.8615 C.ar    1  UNL1        0.0555
     10 C           3.0427    2.9704    1.7272 C.ar    1  UNL1        0.0294
     11 C           2.1068    3.9119    2.2857 C.ar    1  UNL1        0.1023
     12 N           0.7374    3.6930    2.1558 N.ar    1  UNL1       -0.1521
     13 C           2.6135    5.1444    3.0169 C.ar    1  UNL1        0.0056
     14 C           5.8630    6.7190    3.9510 C.ar    1  UNL1       -0.0343
     15 C           6.7989    5.7776    3.3925 C.ar    1  UNL1        0.0282
     16 N           6.3347    4.6482    2.7225 N.ar    1  UNL1       -0.2632
     17 C           4.9653    4.4293    2.5926 C.ar    1  UNL1        0.0282
     18 C           4.0294    5.3707    3.1511 C.ar    1  UNL1       -0.0343
     19 C           2.5360    1.7379    0.9960 C.ar    1  UNL1       -0.0140
     20 C           7.2186    0.7624   -1.0256 C.ar    1  UNL1       -0.0501
     21 C           7.9387   -0.3103   -1.6620 C.ar    1  UNL1       -0.0375
     22 C           5.8238    0.0813    0.0133 C.ar    1  UNL1        0.0026
     23 C           4.8879    1.0227    0.5718 C.ar    1  UNL1       -0.0519
     24 C           3.4719    0.7964    0.4375 C.ar    1  UNL1       -0.0533
     25 C           5.3171   -1.1512   -0.7178 C.2     1  UNL1        0.0876
     26 N           4.0236   -1.3580   -0.8405 N.2     1  UNL1       -0.0915
     27 O           3.1333   -0.4624   -0.3092 O.2     1  UNL1       -0.4090
     28 C           6.3048   -2.1449   -1.3073 C.3     1  UNL1       -0.0027
     29 C           7.1787   -1.4424   -2.3336 C.3     1  UNL1       -0.0215
     30 H           0.5795   -0.9133   -0.5767 H       1  UNL1        0.0232
     31 H           0.5795   -0.0576    0.9468 H       1  UNL1        0.0232
     32 H           2.0062   -0.0457   -0.0620 H       1  UNL1        0.0232
     33 H           0.7862    2.0714   -0.2491 H       1  UNL1        0.0299
     34 H          -2.5424    4.1377    3.8627 H       1  UNL1        0.0283
     35 H          -1.9986    2.4774    3.8936 H       1  UNL1        0.0283
     36 H          -1.9108    4.3006    1.5005 H       1  UNL1        0.0480
     37 H          -3.0609    3.0091    1.7502 H       1  UNL1        0.0480
     38 H          -2.6671    1.1868    0.6692 H       1  UNL1        0.0480
     39 H          -1.2405    0.3073    1.1632 H       1  UNL1        0.0480
     40 H          -1.4471    2.0833   -1.2578 H       1  UNL1        0.0283
     41 H          -1.4471    0.3361   -1.2785 H       1  UNL1        0.0283
     42 H           4.8153    4.0644    2.3762 H       1  UNL1        0.0852
     43 H           4.8111    6.5509    3.8512 H       1  UNL1        0.0639
     44 H           7.8509    5.9457    3.4922 H       1  UNL1        0.0830
     45 H           4.6086    3.5616    2.0779 H       1  UNL1        0.0830
     46 H           4.3861    6.2384    3.6658 H       1  UNL1        0.0639
     47 H           7.7536    1.5594   -0.5529 H       1  UNL1        0.0627
     48 H           5.2445    1.8904    1.0865 H       1  UNL1        0.0624
     49 H           3.1152   -0.0712   -0.0771 H       1  UNL1        0.0624
     50 H           2.1502   -0.6196   -0.4024 H       1  UNL1        0.3278
     51 H           6.9200   -2.5419   -0.5270 H       1  UNL1        0.0333
     52 H           5.7698   -2.9418   -1.7801 H       1  UNL1        0.0333
     53 H           7.8740   -2.1419   -2.7485 H       1  UNL1        0.0317
     54 H           6.5635   -1.0454   -3.1139 H       1  UNL1        0.0317
@<TRIPOS>BOND
     1     1     2    1
     2     2     3    1
     3     3     4    1
     4     4     5    1
     5     5     6    1
     6     6     7    1
     7     2     7    1
     8     5     8    1
     9     8     9   ar
    10     9    10   ar
    11    10    11   ar
    12    11    12   ar
    13     8    12   ar
    14    11    13    1
    15    13    14   ar
    16    14    15   ar
    17    15    16   ar
    18    16    17   ar
    19    17    18   ar
    20    13    18   ar
    21    10    19    1
    22    19    20   ar
    23    20    21   ar
    24    21    22   ar
    25    22    23   ar
    26    23    24   ar
    27    19    24   ar
    28    22    25    1
    29    25    26    2
    30    26    27    1
    31    25    28    1
    32    28    29    1
    33    21    29    1
    34     1    30    1
    35     1    31    1
    36     1    32    1
    37     2    33    1
    38     3    34    1
    39     3    35    1
    40     4    36    1
    41     4    37    1
    42     6    38    1
    43     6    39    1
    44     7    40    1
    45     7    41    1
    46     9    42    1
    47    14    43    1
    48    15    44    1
    49    17    45    1
    50    18    46    1
    51    20    47    1
    52    23    48    1
    53    24    49    1
    54    27    50    1
    55    28    51    1
    56    28    52    1
    57    29    53    1
    58    29    54    1
@<TRIPOS>MOLECULE
mol_89659642_11
 54 58 0 0 0
SMALL
GASTEIGER

@<TRIPOS>ATOM
      1 C           0.9910   -0.0995   -0.0041 C.3     1  UNL1       -0.0623
      2 C           0.4843   -0.8897    1.1915 C.3     1  UNL1       -0.0409
      3 C          -1.7922   -4.8029   -1.5320 C.3     1  UNL1       -0.0331
      4 C          -2.0076   -4.0286   -0.2418 C.3     1  UNL1        0.0299
      5 N          -1.0523   -2.9134   -0.1743 N.pl3   1  UNL1       -0.2554
      6 C          -1.5423   -1.5300   -0.0906 C.3     1  UNL1        0.0299
      7 C          -1.0357   -0.8897    1.1915 C.3     1  UNL1       -0.0331
      8 N           0.3438   -3.1724   -0.1900 N.ar    1  UNL1       -0.1879
      9 C           4.5134   -3.8626   -0.2317 C.ar    1  UNL1        0.0555
     10 C           3.0975   -3.5999   -0.2158 C.ar    1  UNL1        0.0294
     11 C           2.1616   -4.6926   -0.2820 C.ar    1  UNL1        0.1023
     12 N           0.7922   -4.4386   -0.2666 N.ar    1  UNL1       -0.1521
     13 C           2.6683   -6.1231   -0.3685 C.ar    1  UNL1        0.0056
     14 C           5.9179   -7.9506   -0.4791 C.ar    1  UNL1       -0.0343
     15 C           6.8537   -6.8579   -0.4130 C.ar    1  UNL1        0.0282
     16 N           6.3895   -5.5471   -0.3336 N.ar    1  UNL1       -0.2632
     17 C           5.0201   -5.2931   -0.3183 C.ar    1  UNL1        0.0282
     18 C           4.0842   -6.3858   -0.3844 C.ar    1  UNL1       -0.0343
     19 C           2.5908   -2.1695   -0.1293 C.ar    1  UNL1       -0.0140
     20 C           7.2734   -0.3774    1.2225 C.ar    1  UNL1       -0.0501
     21 C           7.9935    0.8675    1.2978 C.ar    1  UNL1       -0.0375
     22 C           5.8786   -0.2469   -0.0130 C.ar    1  UNL1        0.0026
     23 C           4.9427   -1.3395   -0.0791 C.ar    1  UNL1       -0.0519
     24 C           3.5267   -1.0768   -0.0632 C.ar    1  UNL1       -0.0533
     25 C           5.3719    1.1836    0.0736 C.2     1  UNL1        0.0876
     26 N           4.0784    1.4236    0.0881 N.2     1  UNL1       -0.0915
     27 O           3.1881    0.3842    0.0252 O.2     1  UNL1       -0.4090
     28 C           6.3596    2.3368    0.1434 C.3     1  UNL1       -0.0027
     29 C           7.2335    2.1815    1.3773 C.3     1  UNL1       -0.0215
     30 H           0.6343    0.9075    0.0569 H       1  UNL1        0.0232
     31 H           0.6343   -0.5502   -0.9066 H       1  UNL1        0.0232
     32 H           2.0610   -0.0995   -0.0041 H       1  UNL1        0.0232
     33 H           0.8410   -1.8967    1.1306 H       1  UNL1        0.0299
     34 H          -2.4875   -5.6147   -1.5811 H       1  UNL1        0.0283
     35 H          -1.9438   -4.1523   -2.3679 H       1  UNL1        0.0283
     36 H          -1.8560   -4.6792    0.5941 H       1  UNL1        0.0480
     37 H          -3.0061   -3.6449   -0.2186 H       1  UNL1        0.0480
     38 H          -2.6123   -1.5300   -0.0906 H       1  UNL1        0.0480
     39 H          -1.1857   -0.9737   -0.9322 H       1  UNL1        0.0480
     40 H          -1.3923   -1.4459    2.0331 H       1  UNL1        0.0283
     41 H          -1.3923    0.1173    1.2524 H       1  UNL1        0.0283
     42 H           4.8701   -4.8696   -0.2927 H       1  UNL1        0.0852
     43 H           4.8659   -7.7554   -0.4673 H       1  UNL1        0.0639
     44 H           7.9057   -7.0531   -0.4248 H       1  UNL1        0.0830
     45 H           4.6634   -4.2861   -0.2574 H       1  UNL1        0.0830
     46 H           4.4409   -7.3927   -0.4453 H       1  UNL1        0.0639
     47 H           7.8084   -1.3024    1.1665 H       1  UNL1        0.0627
     48 H           5.2993   -2.3465   -0.1400 H       1  UNL1        0.0624
     49 H           3.1701   -0.0699   -0.0023 H       1  UNL1        0.0624
     50 H           2.2050    0.5666    0.0362 H       1  UNL1        0.3278
     51 H           6.9748    2.3330   -0.7321 H       1  UNL1        0.0333
     52 H           5.8246    3.2618    0.1993 H       1  UNL1        0.0333
     53 H           7.9288    2.9933    1.4264 H       1  UNL1        0.0317
     54 H           6.6184    2.1853    2.2528 H       1  UNL1        0.0317
@<TRIPOS>BOND
     1     1     2    1
     2     2     3    1
     3     3     4    1
     4     4     5    1
     5     5     6    1
     6     6     7    1
     7     2     7    1
     8     5     8    1
     9     8     9   ar
    10     9    10   ar
    11    10    11   ar
    12    11    12   ar
    13     8    12   ar
    14    11    13    1
    15    13    14   ar
    16    14    15   ar
    17    15    16   ar
    18    16    17   ar
    19    17    18   ar
    20    13    18   ar
    21    10    19    1
    22    19    20   ar
    23    20    21   ar
    24    21    22   ar
    25    22    23   ar
    26    23    24   ar
    27    19    24   ar
    28    22    25    1
    29    25    26    2
    30    26    27    1
    31    25    28    1
    32    28    29    1
    33    21    29    1
    34     1    30    1
    35     1    31    1
    36     1    32    1
    37     2    33    1
    38     3    34    1
    39     3    35    1
    40     4    36    1
    41     4    37    1
    42     6    38    1
    43     6    39    1
    44     7    40    1
    45     7    41    1
    46     9    42    1
    47    14    43    1
    48    15    44    1
    49    17    45    1
    50    18    46    1
    51    20    47    1
    52    23    48    1
    53    24    49    1
    54    27    50    1
    55    28    51    1
    56    28    52    1
    57    29    53    1
    58    29    54    1
@<TRIPOS>MOLECULE
mol_44587235_12
 54 58 0 0 0
SMALL
GASTEIGER

@<TRIPOS>ATOM
      1 C           0.9490    0.0663   -0.0547 C.3     1  UNL1       -0.0623
      2 C           0.4423    1.4703   -0.3421 C.3     1  UNL1       -0.0409
      3 C          -1.8342    2.3139    4.3503 C.3     1  UNL1       -0.0331
      4 C          -2.0496    2.6780    2.8904 C.3     1  UNL1        0.0299
      5 N          -1.0944    1.9367    2.0544 N.pl3   1  UNL1       -0.2554
      6 C          -1.5844    1.0172    1.0175 C.3     1  UNL1        0.0299
      7 C          -1.0777    1.4703   -0.3421 C.3     1  UNL1       -0.0331
      8 N           0.3017    2.1089    2.2486 N.ar    1  UNL1       -0.1879
      9 C           4.4714    2.5677    2.7659 C.ar    1  UNL1        0.0555
     10 C           3.0555    2.3931    2.5690 C.ar    1  UNL1        0.0294
     11 C           2.1196    3.1194    3.3881 C.ar    1  UNL1        0.1023
     12 N           0.7502    2.9505    3.1976 N.ar    1  UNL1       -0.1521
     13 C           2.6262    4.0702    4.4603 C.ar    1  UNL1        0.0056
     14 C           5.8758    5.2850    5.8301 C.ar    1  UNL1       -0.0343
     15 C           6.8117    4.5587    5.0111 C.ar    1  UNL1        0.0282
     16 N           6.3475    3.6874    4.0286 N.ar    1  UNL1       -0.2632
     17 C           4.9781    3.5185    3.8381 C.ar    1  UNL1        0.0282
     18 C           4.0422    4.2448    4.6572 C.ar    1  UNL1       -0.0343
     19 C           2.5488    1.4423    1.4968 C.ar    1  UNL1       -0.0140
     20 C           7.2314    1.1298   -0.7260 C.ar    1  UNL1       -0.0501
     21 C           7.9515    0.3023   -1.6592 C.ar    1  UNL1       -0.0375
     22 C           5.8365    0.1643    0.0557 C.ar    1  UNL1        0.0026
     23 C           4.9007    0.8906    0.8747 C.ar    1  UNL1       -0.0519
     24 C           3.4847    0.7160    0.6778 C.ar    1  UNL1       -0.0533
     25 C           5.3299   -0.7865   -1.0165 C.2     1  UNL1        0.0876
     26 N           4.0364   -0.9460   -1.1964 N.2     1  UNL1       -0.0915
     27 O           3.1461   -0.2552   -0.4173 O.2     1  UNL1       -0.4090
     28 C           6.3176   -1.5531   -1.8809 C.3     1  UNL1       -0.0027
     29 C           7.1915   -0.5711   -2.6441 C.3     1  UNL1       -0.0215
     30 H           0.5923   -0.6030   -0.8095 H       1  UNL1        0.0232
     31 H           0.5923   -0.2526    0.9023 H       1  UNL1        0.0232
     32 H           2.0190    0.0663   -0.0547 H       1  UNL1        0.0232
     33 H           0.7990    2.1396    0.4127 H       1  UNL1        0.0299
     34 H          -2.5296    2.8535    4.9588 H       1  UNL1        0.0283
     35 H          -1.9858    1.2629    4.4819 H       1  UNL1        0.0283
     36 H          -1.8980    3.7290    2.7588 H       1  UNL1        0.0480
     37 H          -3.0482    2.4229    2.6027 H       1  UNL1        0.0480
     38 H          -2.6544    1.0172    1.0175 H       1  UNL1        0.0480
     39 H          -1.2277    0.0288    1.2197 H       1  UNL1        0.0480
     40 H          -1.4344    2.4586   -0.5443 H       1  UNL1        0.0283
     41 H          -1.4343    0.8010   -1.0968 H       1  UNL1        0.0283
     42 H           4.8281    3.2370    3.5207 H       1  UNL1        0.0852
     43 H           4.8239    5.1552    5.6838 H       1  UNL1        0.0639
     44 H           7.8637    4.6884    5.1574 H       1  UNL1        0.0830
     45 H           4.6214    2.8492    3.0834 H       1  UNL1        0.0830
     46 H           4.3989    4.9141    5.4119 H       1  UNL1        0.0639
     47 H           7.7664    1.7447   -0.0327 H       1  UNL1        0.0627
     48 H           5.2573    1.5599    1.6295 H       1  UNL1        0.0624
     49 H           3.1280    0.0466   -0.0770 H       1  UNL1        0.0624
     50 H           2.1629   -0.3764   -0.5540 H       1  UNL1        0.3278
     51 H           6.9328   -2.1691   -1.2588 H       1  UNL1        0.0333
     52 H           5.7826   -2.1679   -2.5742 H       1  UNL1        0.0333
     53 H           7.8868   -1.1107   -3.2526 H       1  UNL1        0.0317
     54 H           6.5763    0.0450   -3.2662 H       1  UNL1        0.0317
@<TRIPOS>BOND
     1     1     2    1
     2     2     3    1
     3     3     4    1
     4     4     5    1
     5     5     6    1
     6     6     7    1
     7     2     7    1
     8     5     8    1
     9     8     9   ar
    10     9    10   ar
    11    10    11   ar
    12    11    12   ar
    13     8    12   ar
    14    11    13    1
    15    13    14   ar
    16    14    15   ar
    17    15    16   ar
    18    16    17   ar
    19    17    18   ar
    20    13    18   ar
    21    10    19    1
    22    19    20   ar
    23    20    21   ar
    24    21    22   ar
    25    22    23   ar
    26    23    24   ar
    27    19    24   ar
    28    22    25    1
    29    25    26    2
    30    26    27    1
    31    25    28    1
    32    28    29    1
    33    21    29    1
    34     1    30    1
    35     1    31    1
    36     1    32    1
    37     2    33    1
    38     3    34    1
    39     3    35    1
    40     4    36    1
    41     4    37    1
    42     6    38    1
    43     6    39    1
    44     7    40    1
    45     7    41    1
    46     9    42    1
    47    14    43    1
    48    15    44    1
    49    17    45    1
    50    18    46    1
    51    20    47    1
    52    23    48    1
    53    24    49    1
    54    27    50    1
    55    28    51    1
    56    28    52    1
    57    29    53    1
    58    29    54    1
@<TRIPOS>MOLECULE
mol_60146017_13
 54 58 0 0 0
SMALL
GASTEIGER

@<TRIPOS>ATOM
      1 C           0.9594    0.0244    0.0881 C.3     1  UNL1       -0.0623
      2 C           0.4528    1.3379    0.6611 C.3     1  UNL1       -0.0409
      3 C          -1.8238   -0.6726    4.9841 C.3     1  UNL1       -0.0331
      4 C          -2.0391    0.4653    3.9996 C.3     1  UNL1        0.0299
      5 N          -1.0839    0.3402    2.8894 N.pl3   1  UNL1       -0.2554
      6 C          -1.5739    0.1849    1.5121 C.3     1  UNL1        0.0299
      7 C          -1.0672    1.3379    0.6611 C.3     1  UNL1       -0.0331
      8 N           0.3122    0.3692    3.1472 N.ar    1  UNL1       -0.1879
      9 C           4.4819    0.4467    3.8344 C.ar    1  UNL1        0.0555
     10 C           3.0659    0.4172    3.5729 C.ar    1  UNL1        0.0294
     11 C           2.1300    0.5399    4.6606 C.ar    1  UNL1        0.1023
     12 N           0.7607    0.5113    4.4077 N.ar    1  UNL1       -0.1521
     13 C           2.6367    0.7004    6.0847 C.ar    1  UNL1        0.0056
     14 C           5.8863    0.9055    7.9040 C.ar    1  UNL1       -0.0343
     15 C           6.8222    0.7829    6.8162 C.ar    1  UNL1        0.0282
     16 N           6.3579    0.6358    5.5113 N.ar    1  UNL1       -0.2632
     17 C           4.9885    0.6073    5.2584 C.ar    1  UNL1        0.0282
     18 C           4.0527    0.7299    6.3462 C.ar    1  UNL1       -0.0343
     19 C           2.5593    0.2567    2.1488 C.ar    1  UNL1       -0.0140
     20 C           7.2419    1.2804    0.1511 C.ar    1  UNL1       -0.0501
     21 C           7.9620    1.1407   -1.0883 C.ar    1  UNL1       -0.0375
     22 C           5.8470    0.0409    0.2348 C.ar    1  UNL1        0.0026
     23 C           4.9111    0.1635    1.3226 C.ar    1  UNL1       -0.0519
     24 C           3.4952    0.1341    1.0610 C.ar    1  UNL1       -0.0533
     25 C           5.3403   -0.1196   -1.1893 C.2     1  UNL1        0.0876
     26 N           4.0468   -0.1466   -1.4282 N.2     1  UNL1       -0.0915
     27 O           3.1566   -0.0299   -0.3934 O.2     1  UNL1       -0.4090
     28 C           6.3281   -0.2491   -2.3373 C.3     1  UNL1       -0.0027
     29 C           7.2020    0.9932   -2.3963 C.3     1  UNL1       -0.0215
     30 H           0.6028   -0.0887   -0.9144 H       1  UNL1        0.0232
     31 H           0.6028   -0.7873    0.6872 H       1  UNL1        0.0232
     32 H           2.0294    0.0244    0.0881 H       1  UNL1        0.0232
     33 H           0.8094    1.4509    1.6635 H       1  UNL1        0.0299
     34 H          -2.5191   -0.5815    5.7922 H       1  UNL1        0.0283
     35 H          -1.9754   -1.6079    4.4868 H       1  UNL1        0.0283
     36 H          -1.8875    1.4006    4.4969 H       1  UNL1        0.0480
     37 H          -3.0377    0.4223    3.6176 H       1  UNL1        0.0480
     38 H          -2.6439    0.1849    1.5121 H       1  UNL1        0.0480
     39 H          -1.2172   -0.7398    1.1088 H       1  UNL1        0.0480
     40 H          -1.4239    2.2626    1.0644 H       1  UNL1        0.0283
     41 H          -1.4239    1.2249   -0.3414 H       1  UNL1        0.0283
     42 H           4.8386    0.5597    4.8368 H       1  UNL1        0.0852
     43 H           4.8343    0.8836    7.7097 H       1  UNL1        0.0639
     44 H           7.8742    0.8048    7.0105 H       1  UNL1        0.0830
     45 H           4.6319    0.4942    4.2560 H       1  UNL1        0.0830
     46 H           4.4093    0.8429    7.3487 H       1  UNL1        0.0639
     47 H           7.7769    1.3842    1.0720 H       1  UNL1        0.0627
     48 H           5.2678    0.2766    2.3250 H       1  UNL1        0.0624
     49 H           3.1385    0.0210    0.0586 H       1  UNL1        0.0624
     50 H           2.1734   -0.0504   -0.5750 H       1  UNL1        0.3278
     51 H           6.9432   -1.1109   -2.1831 H       1  UNL1        0.0333
     52 H           5.7931   -0.3529   -3.2581 H       1  UNL1        0.0333
     53 H           7.8973    0.9021   -3.2045 H       1  UNL1        0.0317
     54 H           6.5868    1.8550   -2.5505 H       1  UNL1        0.0317
@<TRIPOS>BOND
     1     1     2    1
     2     2     3    1
     3     3     4    1
     4     4     5    1
     5     5     6    1
     6     6     7    1
     7     2     7    1
     8     5     8    1
     9     8     9   ar
    10     9    10   ar
    11    10    11   ar
    12    11    12   ar
    13     8    12   ar
    14    11    13    1
    15    13    14   ar
    16    14    15   ar
    17    15    16   ar
    18    16    17   ar
    19    17    18   ar
    20    13    18   ar
    21    10    19    1
    22    19    20   ar
    23    20    21   ar
    24    21    22   ar
    25    22    23   ar
    26    23    24   ar
    27    19    24   ar
    28    22    25    1
    29    25    26    2
    30    26    27    1
    31    25    28    1
    32    28    29    1
    33    21    29    1
    34     1    30    1
    35     1    31    1
    36     1    32    1
    37     2    33    1
    38     3    34    1
    39     3    35    1
    40     4    36    1
    41     4    37    1
    42     6    38    1
    43     6    39    1
    44     7    40    1
    45     7    41    1
    46     9    42    1
    47    14    43    1
    48    15    44    1
    49    17    45    1
    50    18    46    1
    51    20    47    1
    52    23    48    1
    53    24    49    1
    54    27    50    1
    55    28    51    1
    56    28    52    1
    57    29    53    1
    58    29    54    1
@<TRIPOS>MOLECULE
mol_11639637_14
 54 58 0 0 0
SMALL
GASTEIGER

@<TRIPOS>ATOM
      1 C           1.0068    0.0851    0.0521 C.3     1  UNL1       -0.0623
      2 C           0.5002   -0.0463    1.4791 C.3     1  UNL1       -0.0409
      3 C          -1.7764   -4.7820    0.9282 C.3     1  UNL1       -0.0331
      4 C          -1.9918   -3.4899    1.6994 C.3     1  UNL1        0.0299
      5 N          -1.0365   -2.4752    1.2318 N.pl3   1  UNL1       -0.2554
      6 C          -1.5265   -1.2164    0.6518 C.3     1  UNL1        0.0299
      7 C          -1.0198   -0.0463    1.4791 C.3     1  UNL1       -0.0331
      8 N           0.3596   -2.7108    1.3404 N.ar    1  UNL1       -0.1879
      9 C           4.5293   -3.3389    1.6298 C.ar    1  UNL1        0.0555
     10 C           3.1133   -3.0999    1.5196 C.ar    1  UNL1        0.0294
     11 C           2.1774   -4.0941    1.9777 C.ar    1  UNL1        0.1023
     12 N           0.8081   -3.8629    1.8712 N.ar    1  UNL1       -0.1521
     13 C           2.6841   -5.3956    2.5775 C.ar    1  UNL1        0.0056
     14 C           5.9337   -7.0584    3.3437 C.ar    1  UNL1       -0.0343
     15 C           6.8696   -6.0642    2.8856 C.ar    1  UNL1        0.0282
     16 N           6.4053   -4.8716    2.3360 N.ar    1  UNL1       -0.2632
     17 C           5.0359   -4.6404    2.2295 C.ar    1  UNL1        0.0282
     18 C           4.1001   -5.6346    2.6876 C.ar    1  UNL1       -0.0343
     19 C           2.6067   -1.7983    0.9199 C.ar    1  UNL1       -0.0140
     20 C           7.2893    0.4198    1.2643 C.ar    1  UNL1       -0.0501
     21 C           8.0094    1.5526    0.7424 C.ar    1  UNL1       -0.0375
     22 C           5.8944   -0.0490    0.1138 C.ar    1  UNL1        0.0026
     23 C           4.9585   -1.0431    0.5719 C.ar    1  UNL1       -0.0519
     24 C           3.5426   -0.8041    0.4618 C.ar    1  UNL1       -0.0533
     25 C           5.3877    1.2526   -0.4859 C.2     1  UNL1        0.0876
     26 N           4.0942    1.4709   -0.5865 N.2     1  UNL1       -0.0915
     27 O           3.2040    0.5252   -0.1507 O.2     1  UNL1       -0.4090
     28 C           6.3755    2.3019   -0.9694 C.3     1  UNL1       -0.0027
     29 C           7.2494    2.7481    0.1915 C.3     1  UNL1       -0.0215
     30 H           0.6502    1.0013   -0.3701 H       1  UNL1        0.0232
     31 H           0.6502   -0.7386   -0.5303 H       1  UNL1        0.0232
     32 H           2.0768    0.0851    0.0521 H       1  UNL1        0.0232
     33 H           0.8568   -0.9625    1.9013 H       1  UNL1        0.0299
     34 H          -2.4717   -5.5206    1.2686 H       1  UNL1        0.0283
     35 H          -1.9280   -4.6037   -0.1159 H       1  UNL1        0.0283
     36 H          -1.8401   -3.6682    2.7435 H       1  UNL1        0.0480
     37 H          -2.9903   -3.1408    1.5385 H       1  UNL1        0.0480
     38 H          -2.5965   -1.2164    0.6518 H       1  UNL1        0.0480
     39 H          -1.1698   -1.1239   -0.3528 H       1  UNL1        0.0480
     40 H          -1.3765   -0.1388    2.4836 H       1  UNL1        0.0283
     41 H          -1.3765    0.8699    1.0569 H       1  UNL1        0.0283
     42 H           4.8859   -4.2551    2.0520 H       1  UNL1        0.0852
     43 H           4.8817   -6.8809    3.2619 H       1  UNL1        0.0639
     44 H           7.9216   -6.2418    2.9674 H       1  UNL1        0.0830
     45 H           4.6793   -3.7242    1.8073 H       1  UNL1        0.0830
     46 H           4.4567   -6.5509    3.1098 H       1  UNL1        0.0639
     47 H           7.8243   -0.4218    1.6521 H       1  UNL1        0.0627
     48 H           5.3152   -1.9594    0.9941 H       1  UNL1        0.0624
     49 H           3.1859    0.1121    0.0396 H       1  UNL1        0.0624
     50 H           2.2208    0.6912   -0.2272 H       1  UNL1        0.3278
     51 H           6.9906    1.8848   -1.7391 H       1  UNL1        0.0333
     52 H           5.8405    3.1435   -1.3572 H       1  UNL1        0.0333
     53 H           7.9447    3.4868   -0.1489 H       1  UNL1        0.0317
     54 H           6.6342    3.1652    0.9612 H       1  UNL1        0.0317
@<TRIPOS>BOND
     1     1     2    1
     2     2     3    1
     3     3     4    1
     4     4     5    1
     5     5     6    1
     6     6     7    1
     7     2     7    1
     8     5     8    1
     9     8     9   ar
    10     9    10   ar
    11    10    11   ar
    12    11    12   ar
    13     8    12   ar
    14    11    13    1
    15    13    14   ar
    16    14    15   ar
    17    15    16   ar
    18    16    17   ar
    19    17    18   ar
    20    13    18   ar
    21    10    19    1
    22    19    20   ar
    23    20    21   ar
    24    21    22   ar
    25    22    23   ar
    26    23    24   ar
    27    19    24   ar
    28    22    25    1
    29    25    26    2
    30    26    27    1
    31    25    28    1
    32    28    29    1
    33    21    29    1
    34     1    30    1
    35     1    31    1
    36     1    32    1
    37     2    33    1
    38     3    34    1
    39     3    35    1
    40     4    36    1
    41     4    37    1
    42     6    38    1
    43     6    39    1
    44     7    40    1
    45     7    41    1
    46     9    42    1
    47    14    43    1
    48    15    44    1
    49    17    45    1
    50    18    46    1
    51    20    47    1
    52    23    48    1
    53    24    49    1
    54    27    50    1
    55    28    51    1
    56    28    52    1
    57    29    53    1
    58    29    54    1
@<TRIPOS>MOLECULE
mol_74627710_15
 54 58 0 0 0
SMALL
GASTEIGER

@<TRIPOS>ATOM
      1 C           1.0723    0.0284   -0.0629 C.3     1  UNL1       -0.0623
      2 C           0.5657    1.3143    0.5698 C.3     1  UNL1       -0.0409
      3 C          -1.7109   -0.8925    4.7959 C.3     1  UNL1       -0.0331
      4 C          -1.9263    0.2894    3.8647 C.3     1  UNL1        0.0299
      5 N          -0.9710    0.2153    2.7499 N.pl3   1  UNL1       -0.2554
      6 C          -1.4610    0.1234    1.3670 C.3     1  UNL1        0.0299
      7 C          -0.9543    1.3143    0.5698 C.3     1  UNL1       -0.0331
      8 N           0.4251    0.2325    3.0088 N.ar    1  UNL1       -0.1879
      9 C           4.5948    0.2784    3.6988 C.ar    1  UNL1        0.0555
     10 C           3.1788    0.2609    3.4362 C.ar    1  UNL1        0.0294
     11 C           2.2429    0.3335    4.5285 C.ar    1  UNL1        0.1023
     12 N           0.8736    0.3166    4.2745 N.ar    1  UNL1       -0.1521
     13 C           2.7496    0.4285    5.9584 C.ar    1  UNL1        0.0056
     14 C           5.9992    0.5499    7.7852 C.ar    1  UNL1       -0.0343
     15 C           6.9351    0.4773    6.6929 C.ar    1  UNL1        0.0282
     16 N           6.4708    0.3903    5.3827 N.ar    1  UNL1       -0.2632
     17 C           5.1014    0.3734    5.1287 C.ar    1  UNL1        0.0282
     18 C           4.1655    0.4460    6.2210 C.ar    1  UNL1       -0.0343
     19 C           2.6722    0.1659    2.0063 C.ar    1  UNL1       -0.0140
     20 C           7.3547    1.2803    0.0577 C.ar    1  UNL1       -0.0501
     21 C           8.0748    1.1976   -1.1868 C.ar    1  UNL1       -0.0375
     22 C           5.9599    0.0382    0.0844 C.ar    1  UNL1        0.0026
     23 C           5.0240    0.1108    1.1766 C.ar    1  UNL1       -0.0519
     24 C           3.6080    0.0934    0.9140 C.ar    1  UNL1       -0.0533
     25 C           5.4532   -0.0568   -1.3456 C.2     1  UNL1        0.0876
     26 N           4.1597   -0.0727   -1.5854 N.2     1  UNL1       -0.0915
     27 O           3.2695   -0.0037   -0.5464 O.2     1  UNL1       -0.4090
     28 C           6.4410   -0.1333   -2.4983 C.3     1  UNL1       -0.0027
     29 C           7.3148    1.1103   -2.5003 C.3     1  UNL1       -0.0215
     30 H           0.7157   -0.0384   -1.0695 H       1  UNL1        0.0232
     31 H           0.7157   -0.8098    0.4983 H       1  UNL1        0.0232
     32 H           2.1423    0.0284   -0.0629 H       1  UNL1        0.0232
     33 H           0.9223    1.3812    1.5763 H       1  UNL1        0.0299
     34 H          -2.4062   -0.8386    5.6074 H       1  UNL1        0.0283
     35 H          -1.8625   -1.8040    4.2562 H       1  UNL1        0.0283
     36 H          -1.7747    1.2008    4.4044 H       1  UNL1        0.0480
     37 H          -2.9248    0.2639    3.4811 H       1  UNL1        0.0480
     38 H          -2.5310    0.1234    1.3670 H       1  UNL1        0.0480
     39 H          -1.1043   -0.7817    0.9216 H       1  UNL1        0.0480
     40 H          -1.3110    2.2195    1.0151 H       1  UNL1        0.0283
     41 H          -1.3110    1.2474   -0.4368 H       1  UNL1        0.0283
     42 H           4.9514    0.3453    4.7054 H       1  UNL1        0.0852
     43 H           4.9472    0.5369    7.5901 H       1  UNL1        0.0639
     44 H           7.9871    0.4903    6.8880 H       1  UNL1        0.0830
     45 H           4.7448    0.3065    4.1221 H       1  UNL1        0.0830
     46 H           4.5222    0.5128    7.2276 H       1  UNL1        0.0639
     47 H           7.8897    1.3417    0.9823 H       1  UNL1        0.0627
     48 H           5.3807    0.1777    2.1832 H       1  UNL1        0.0624
     49 H           3.2514    0.0265   -0.0926 H       1  UNL1        0.0624
     50 H           2.2863   -0.0158   -0.7288 H       1  UNL1        0.3278
     51 H           7.0561   -1.0013   -2.3839 H       1  UNL1        0.0333
     52 H           5.9060   -0.1948   -3.4229 H       1  UNL1        0.0333
     53 H           8.0102    1.0564   -3.3118 H       1  UNL1        0.0317
     54 H           6.6997    1.9783   -2.6147 H       1  UNL1        0.0317
@<TRIPOS>BOND
     1     1     2    1
     2     2     3    1
     3     3     4    1
     4     4     5    1
     5     5     6    1
     6     6     7    1
     7     2     7    1
     8     5     8    1
     9     8     9   ar
    10     9    10   ar
    11    10    11   ar
    12    11    12   ar
    13     8    12   ar
    14    11    13    1
    15    13    14   ar
    16    14    15   ar
    17    15    16   ar
    18    16    17   ar
    19    17    18   ar
    20    13    18   ar
    21    10    19    1
    22    19    20   ar
    23    20    21   ar
    24    21    22   ar
    25    22    23   ar
    26    23    24   ar
    27    19    24   ar
    28    22    25    1
    29    25    26    2
    30    26    27    1
    31    25    28    1
    32    28    29    1
    33    21    29    1
    34     1    30    1
    35     1    31    1
    36     1    32    1
    37     2    33    1
    38     3    34    1
    39     3    35    1
    40     4    36    1
    41     4    37    1
    42     6    38    1
    43     6    39    1
    44     7    40    1
    45     7    41    1
    46     9    42    1
    47    14    43    1
    48    15    44    1
    49    17    45    1
    50    18    46    1
    51    20    47    1
    52    23    48    1
    53    24    49    1
    54    27    50    1
    55    28    51    1
    56    28    52    1
    57    29    53    1
    58    29    54    1
@<TRIPOS>MOLECULE
mol_87623644_16
 54 58 0 0 0
SMALL
GASTEIGER

@<TRIPOS>ATOM
      1 C           0.9507    0.0051   -0.0868 C.3     1  UNL1       -0.0623
      2 C           0.4440   -1.2998   -0.6791 C.3     1  UNL1       -0.0409
      3 C          -1.8326    0.7743   -4.9720 C.3     1  UNL1       -0.0331
      4 C          -2.0479   -0.3781   -4.0044 C.3     1  UNL1        0.0299
      5 N          -1.0927   -0.2693   -2.8924 N.pl3   1  UNL1       -0.2554
      6 C          -1.5827   -0.1344   -1.5131 C.3     1  UNL1        0.0299
      7 C          -1.0760   -1.2998   -0.6791 C.3     1  UNL1       -0.0331
      8 N           0.3034   -0.2946   -3.1507 N.ar    1  UNL1       -0.1879
      9 C           4.4731   -0.3619   -3.8389 C.ar    1  UNL1        0.0555
     10 C           3.0572   -0.3363   -3.5770 C.ar    1  UNL1        0.0294
     11 C           2.1213   -0.4429   -4.6665 C.ar    1  UNL1        0.1023
     12 N           0.7519   -0.4181   -4.4132 N.ar    1  UNL1       -0.1521
     13 C           2.6279   -0.5824   -6.0927 C.ar    1  UNL1        0.0056
     14 C           5.8775   -0.7606   -7.9149 C.ar    1  UNL1       -0.0343
     15 C           6.8134   -0.6541   -6.8254 C.ar    1  UNL1        0.0282
     16 N           6.3491   -0.5262   -5.5185 N.ar    1  UNL1       -0.2632
     17 C           4.9798   -0.5014   -5.2652 C.ar    1  UNL1        0.0282
     18 C           4.0439   -0.6080   -6.3547 C.ar    1  UNL1       -0.0343
     19 C           2.5505   -0.1968   -2.1507 C.ar    1  UNL1       -0.0140
     20 C           7.2331   -1.2499   -0.1684 C.ar    1  UNL1       -0.0501
     21 C           7.9532   -1.1284    1.0729 C.ar    1  UNL1       -0.0375
     22 C           5.8382   -0.0092   -0.2337 C.ar    1  UNL1        0.0026
     23 C           4.9023   -0.1158   -1.3232 C.ar    1  UNL1       -0.0519
     24 C           3.4864   -0.0902   -1.0613 C.ar    1  UNL1       -0.0533
     25 C           5.3316    0.1303    1.1925 C.2     1  UNL1        0.0876
     26 N           4.0381    0.1537    1.4318 N.2     1  UNL1       -0.0915
     27 O           3.1478    0.0523    0.3954 O.2     1  UNL1       -0.4090
     28 C           6.3193    0.2428    2.3424 C.3     1  UNL1       -0.0027
     29 C           7.1932   -1.0003    2.3830 C.3     1  UNL1       -0.0215
     30 H           0.5940    0.1034    0.9172 H       1  UNL1        0.0232
     31 H           0.5940    0.8255   -0.6739 H       1  UNL1        0.0232
     32 H           2.0207    0.0051   -0.0868 H       1  UNL1        0.0232
     33 H           0.8007   -1.3980   -1.6831 H       1  UNL1        0.0299
     34 H          -2.5279    0.6951   -5.7814 H       1  UNL1        0.0283
     35 H          -1.9842    1.7021   -4.4610 H       1  UNL1        0.0283
     36 H          -1.8963   -1.3059   -4.5154 H       1  UNL1        0.0480
     37 H          -3.0465   -0.3407   -3.6218 H       1  UNL1        0.0480
     38 H          -2.6527   -0.1344   -1.5131 H       1  UNL1        0.0480
     39 H          -1.2260    0.7842   -1.0961 H       1  UNL1        0.0480
     40 H          -1.4327   -2.2184   -1.0961 H       1  UNL1        0.0283
     41 H          -1.4327   -1.2016    0.3249 H       1  UNL1        0.0283
     42 H           4.8298   -0.4601   -4.8429 H       1  UNL1        0.0852
     43 H           4.8255   -0.7416   -7.7203 H       1  UNL1        0.0639
     44 H           7.8654   -0.6731   -7.0200 H       1  UNL1        0.0830
     45 H           4.6231   -0.4032   -4.2612 H       1  UNL1        0.0830
     46 H           4.4005   -0.7062   -7.3587 H       1  UNL1        0.0639
     47 H           7.7681   -1.3401   -1.0906 H       1  UNL1        0.0627
     48 H           5.2590   -0.2140   -2.3272 H       1  UNL1        0.0624
     49 H           3.1297    0.0080   -0.0573 H       1  UNL1        0.0624
     50 H           2.1646    0.0701    0.5773 H       1  UNL1        0.3278
     51 H           6.9345    1.1067    2.2009 H       1  UNL1        0.0333
     52 H           5.7843    0.3330    3.2646 H       1  UNL1        0.0333
     53 H           7.8885   -0.9211    3.1925 H       1  UNL1        0.0317
     54 H           6.5780   -1.8642    2.5245 H       1  UNL1        0.0317
@<TRIPOS>BOND
     1     1     2    1
     2     2     3    1
     3     3     4    1
     4     4     5    1
     5     5     6    1
     6     6     7    1
     7     2     7    1
     8     5     8    1
     9     8     9   ar
    10     9    10   ar
    11    10    11   ar
    12    11    12   ar
    13     8    12   ar
    14    11    13    1
    15    13    14   ar
    16    14    15   ar
    17    15    16   ar
    18    16    17   ar
    19    17    18   ar
    20    13    18   ar
    21    10    19    1
    22    19    20   ar
    23    20    21   ar
    24    21    22   ar
    25    22    23   ar
    26    23    24   ar
    27    19    24   ar
    28    22    25    1
    29    25    26    2
    30    26    27    1
    31    25    28    1
    32    28    29    1
    33    21    29    1
    34     1    30    1
    35     1    31    1
    36     1    32    1
    37     2    33    1
    38     3    34    1
    39     3    35    1
    40     4    36    1
    41     4    37    1
    42     6    38    1
    43     6    39    1
    44     7    40    1
    45     7    41    1
    46     9    42    1
    47    14    43    1
    48    15    44    1
    49    17    45    1
    50    18    46    1
    51    20    47    1
    52    23    48    1
    53    24    49    1
    54    27    50    1
    55    28    51    1
    56    28    52    1
    57    29    53    1
    58    29    54    1
