mol_11531192_0


 31 35  0  0  0  0  0  0  0  0999 V2000
    0.9172   -3.7260    9.0577 N   0  0  0  0  0  0  0  0  0  0  0  0
   -0.2636   -3.6238    8.3688 C   0  0  0  0  0  0  0  0  0  0  0  0
   -0.8713   -2.4772    8.8292 C   0  0  0  0  0  0  0  0  0  0  0  0
   -0.0116   -1.9887    9.8577 C   0  0  0  0  0  0  0  0  0  0  0  0
    1.0729   -2.7621    9.9813 N   0  0  0  0  0  0  0  0  0  0  0  0
   -2.0847   -1.8884    8.2971 C   0  0  0  0  0  0  0  0  0  0  0  0
   -2.9737   -2.7139    7.5840 C   0  0  0  0  0  0  0  0  0  0  0  0
   -4.0288   -2.1359    6.9002 C   0  0  0  0  0  0  0  0  0  0  0  0
   -4.2154   -0.7623    6.9563 C   0  0  0  0  0  0  0  0  0  0  0  0
   -3.3918    0.0751    7.6907 C   0  0  0  0  0  0  0  0  0  0  0  0
   -2.3113   -0.5005    8.3689 C   0  0  0  0  0  0  0  0  0  0  0  0
   -5.3395   -0.4291    6.0964 C   0  0  0  0  0  0  0  0  0  0  0  0
   -5.7525    0.7829    5.9005 N   0  0  0  0  0  0  0  0  0  0  0  0
   -6.8342    0.7904    5.0127 O   0  0  0  0  0  0  0  0  0  0  0  0
   -5.9016   -1.6917    5.4836 C   0  0  0  0  0  0  0  0  0  0  0  0
   -5.0137   -2.8260    6.0131 C   0  0  0  0  0  0  0  0  0  0  0  0
   -7.0343    1.7415    4.9360 H   0  0  0  0  0  0  0  0  0  0  0  0
    3.5805   -3.4935    7.2377 C   0  0  0  0  0  0  0  0  0  0  0  0
    3.3817   -4.1312    8.6185 C   0  0  0  0  0  0  0  0  0  0  0  0
    1.9693   -4.7211    8.8379 C   0  0  0  0  0  0  0  0  0  0  0  0
    1.6199   -5.6661    7.6797 C   0  0  0  0  0  0  0  0  0  0  0  0
    1.7341   -4.9688    6.3254 C   0  0  0  0  0  0  0  0  0  0  0  0
    3.1371   -4.4084    6.1028 C   0  0  0  0  0  0  0  0  0  0  0  0
    1.4235   -5.9021    5.2942 O   0  0  0  0  0  0  0  0  0  0  0  0
    2.1389   -6.5591    5.2481 H   0  0  0  0  0  0  0  0  0  0  0  0
   -0.1895   -0.7939   10.6739 C   0  0  0  0  0  0  0  0  0  0  0  0
    0.4321    0.3991   10.3085 C   0  0  0  0  0  0  0  0  0  0  0  0
    0.1535    1.5325   11.0509 C   0  0  0  0  0  0  0  0  0  0  0  0
   -0.6785    1.5495   12.1152 N   0  0  0  0  0  0  0  0  0  0  0  0
   -1.2475    0.3753   12.4623 C   0  0  0  0  0  0  0  0  0  0  0  0
   -1.0365   -0.8111   11.7835 C   0  0  0  0  0  0  0  0  0  0  0  0
 18 19  1  0  0  0
 19 20  1  0  0  0
 20 21  1  0  0  0
 21 22  1  0  0  0
 22 23  1  0  0  0
 18 23  1  0  0  0
 22 24  1  0  0  0
 20  1  1  0  0  0
  1  2  1  0  0  0
  2  3  2  0  0  0
  3  4  1  0  0  0
  4  5  2  0  0  0
  1  5  1  0  0  0
  4 26  1  0  0  0
 26 27  2  0  0  0
 27 28  1  0  0  0
 28 29  2  0  0  0
 29 30  1  0  0  0
 30 31  2  0  0  0
 26 31  1  0  0  0
  3  6  1  0  0  0
  6  7  2  0  0  0
  7  8  1  0  0  0
  8  9  2  0  0  0
  9 10  1  0  0  0
 10 11  2  0  0  0
  6 11  1  0  0  0
  9 12  1  0  0  0
 12 13  2  0  0  0
 13 14  1  0  0  0
 12 15  1  0  0  0
 15 16  1  0  0  0
  8 16  1  0  0  0
 24 25  1  0  0  0
 14 17  1  0  0  0
M  END
> <minimizedAffinity>
-11.25976

$$$$
mol_11531192_0


 31 35  0  0  0  0  0  0  0  0999 V2000
    0.6202   -1.5375   10.4520 N   0  0  0  0  0  0  0  0  0  0  0  0
   -0.5984   -1.4131    9.8365 C   0  0  0  0  0  0  0  0  0  0  0  0
   -0.5939   -2.3226    8.8027 C   0  0  0  0  0  0  0  0  0  0  0  0
    0.7089   -2.9035    8.8250 C   0  0  0  0  0  0  0  0  0  0  0  0
    1.4334   -2.4135    9.8372 N   0  0  0  0  0  0  0  0  0  0  0  0
   -1.7224   -2.6435    7.9508 C   0  0  0  0  0  0  0  0  0  0  0  0
   -2.5802   -1.6013    7.5532 C   0  0  0  0  0  0  0  0  0  0  0  0
   -3.7668   -1.9121    6.9127 C   0  0  0  0  0  0  0  0  0  0  0  0
   -4.0757   -3.2370    6.6410 C   0  0  0  0  0  0  0  0  0  0  0  0
   -3.2314   -4.2846    6.9702 C   0  0  0  0  0  0  0  0  0  0  0  0
   -2.0386   -3.9790    7.6356 C   0  0  0  0  0  0  0  0  0  0  0  0
   -5.3979   -3.2722    6.0372 C   0  0  0  0  0  0  0  0  0  0  0  0
   -5.9961   -4.3688    5.6945 N   0  0  0  0  0  0  0  0  0  0  0  0
   -7.2586   -4.0875    5.1604 O   0  0  0  0  0  0  0  0  0  0  0  0
   -5.9337   -1.8647    5.9058 C   0  0  0  0  0  0  0  0  0  0  0  0
   -4.8461   -0.9625    6.5047 C   0  0  0  0  0  0  0  0  0  0  0  0
   -7.6050   -4.9775    4.9643 H   0  0  0  0  0  0  0  0  0  0  0  0
   -1.1928   -0.1530   12.7445 C   0  0  0  0  0  0  0  0  0  0  0  0
    0.0764   -1.0050   12.8709 C   0  0  0  0  0  0  0  0  0  0  0  0
    1.0490   -0.8599   11.6776 C   0  0  0  0  0  0  0  0  0  0  0  0
    1.3411    0.6265   11.4287 C   0  0  0  0  0  0  0  0  0  0  0  0
    0.0586    1.4269   11.2097 C   0  0  0  0  0  0  0  0  0  0  0  0
   -0.8888    1.2998   12.4005 C   0  0  0  0  0  0  0  0  0  0  0  0
    0.3943    2.7976   11.0105 O   0  0  0  0  0  0  0  0  0  0  0  0
    0.7213    3.1596   11.8516 H   0  0  0  0  0  0  0  0  0  0  0  0
    1.2412   -3.9303    7.9374 C   0  0  0  0  0  0  0  0  0  0  0  0
    1.4985   -3.6312    6.6003 C   0  0  0  0  0  0  0  0  0  0  0  0
    2.0996   -4.6022    5.8200 C   0  0  0  0  0  0  0  0  0  0  0  0
    2.4439   -5.8270    6.2748 N   0  0  0  0  0  0  0  0  0  0  0  0
    2.1606   -6.0987    7.5666 C   0  0  0  0  0  0  0  0  0  0  0  0
    1.5653   -5.1961    8.4290 C   0  0  0  0  0  0  0  0  0  0  0  0
 18 19  1  0  0  0
 19 20  1  0  0  0
 20 21  1  0  0  0
 21 22  1  0  0  0
 22 23  1  0  0  0
 18 23  1  0  0  0
 22 24  1  0  0  0
 20  1  1  0  0  0
  1  2  1  0  0  0
  2  3  2  0  0  0
  3  4  1  0  0  0
  4  5  2  0  0  0
  1  5  1  0  0  0
  4 26  1  0  0  0
 26 27  2  0  0  0
 27 28  1  0  0  0
 28 29  2  0  0  0
 29 30  1  0  0  0
 30 31  2  0  0  0
 26 31  1  0  0  0
  3  6  1  0  0  0
  6  7  2  0  0  0
  7  8  1  0  0  0
  8  9  2  0  0  0
  9 10  1  0  0  0
 10 11  2  0  0  0
  6 11  1  0  0  0
  9 12  1  0  0  0
 12 13  2  0  0  0
 13 14  1  0  0  0
 12 15  1  0  0  0
 15 16  1  0  0  0
  8 16  1  0  0  0
 24 25  1  0  0  0
 14 17  1  0  0  0
M  END
> <minimizedAffinity>
-11.00528

$$$$
mol_11531192_0


 31 35  0  0  0  0  0  0  0  0999 V2000
    0.6326   -3.6689    7.2958 N   0  0  0  0  0  0  0  0  0  0  0  0
   -0.5722   -3.5466    6.6534 C   0  0  0  0  0  0  0  0  0  0  0  0
   -1.3853   -2.8363    7.5079 C   0  0  0  0  0  0  0  0  0  0  0  0
   -0.6028   -2.6353    8.6837 C   0  0  0  0  0  0  0  0  0  0  0  0
    0.6236   -3.1486    8.5350 N   0  0  0  0  0  0  0  0  0  0  0  0
   -2.7168   -2.3501    7.2029 C   0  0  0  0  0  0  0  0  0  0  0  0
   -3.7229   -3.2893    6.9101 C   0  0  0  0  0  0  0  0  0  0  0  0
   -4.9393   -2.8444    6.4229 C   0  0  0  0  0  0  0  0  0  0  0  0
   -5.1614   -1.4841    6.2649 C   0  0  0  0  0  0  0  0  0  0  0  0
   -4.2136   -0.5284    6.5925 C   0  0  0  0  0  0  0  0  0  0  0  0
   -2.9742   -0.9723    7.0674 C   0  0  0  0  0  0  0  0  0  0  0  0
   -6.4790   -1.3126    5.6746 C   0  0  0  0  0  0  0  0  0  0  0  0
   -6.9771   -0.1574    5.3661 N   0  0  0  0  0  0  0  0  0  0  0  0
   -8.2475   -0.3112    4.7999 O   0  0  0  0  0  0  0  0  0  0  0  0
   -7.1260   -2.6644    5.4755 C   0  0  0  0  0  0  0  0  0  0  0  0
   -6.0876   -3.6835    5.9641 C   0  0  0  0  0  0  0  0  0  0  0  0
   -8.4991    0.6091    4.5990 H   0  0  0  0  0  0  0  0  0  0  0  0
    2.5752   -5.9128    8.5808 C   0  0  0  0  0  0  0  0  0  0  0  0
    2.1096   -5.7237    7.1316 C   0  0  0  0  0  0  0  0  0  0  0  0
    1.8587   -4.2484    6.7423 C   0  0  0  0  0  0  0  0  0  0  0  0
    3.0917   -3.4052    7.0960 C   0  0  0  0  0  0  0  0  0  0  0  0
    3.4676   -3.5419    8.5702 C   0  0  0  0  0  0  0  0  0  0  0  0
    3.7376   -4.9974    8.9447 C   0  0  0  0  0  0  0  0  0  0  0  0
    4.6301   -2.7588    8.8282 O   0  0  0  0  0  0  0  0  0  0  0  0
    5.3873   -3.1764    8.3835 H   0  0  0  0  0  0  0  0  0  0  0  0
   -0.9906   -1.9355    9.9024 C   0  0  0  0  0  0  0  0  0  0  0  0
   -0.8395   -0.5525    9.9905 C   0  0  0  0  0  0  0  0  0  0  0  0
   -1.3157    0.0837   11.1226 C   0  0  0  0  0  0  0  0  0  0  0  0
   -1.9105   -0.5574   12.1525 N   0  0  0  0  0  0  0  0  0  0  0  0
   -2.0213   -1.8992   12.0521 C   0  0  0  0  0  0  0  0  0  0  0  0
   -1.5808   -2.6271   10.9617 C   0  0  0  0  0  0  0  0  0  0  0  0
 18 19  1  0  0  0
 19 20  1  0  0  0
 20 21  1  0  0  0
 21 22  1  0  0  0
 22 23  1  0  0  0
 18 23  1  0  0  0
 22 24  1  0  0  0
 20  1  1  0  0  0
  1  2  1  0  0  0
  2  3  2  0  0  0
  3  4  1  0  0  0
  4  5  2  0  0  0
  1  5  1  0  0  0
  4 26  1  0  0  0
 26 27  2  0  0  0
 27 28  1  0  0  0
 28 29  2  0  0  0
 29 30  1  0  0  0
 30 31  2  0  0  0
 26 31  1  0  0  0
  3  6  1  0  0  0
  6  7  2  0  0  0
  7  8  1  0  0  0
  8  9  2  0  0  0
  9 10  1  0  0  0
 10 11  2  0  0  0
  6 11  1  0  0  0
  9 12  1  0  0  0
 12 13  2  0  0  0
 13 14  1  0  0  0
 12 15  1  0  0  0
 15 16  1  0  0  0
  8 16  1  0  0  0
 24 25  1  0  0  0
 14 17  1  0  0  0
M  END
> <minimizedAffinity>
-10.92147

$$$$
mol_44587190_1


 28 31  0  0  0  0  0  0  0  0999 V2000
   -1.4186   -2.8173    7.6591 C   0  0  0  0  0  0  0  0  0  0  0  0
   -0.5646   -3.5576    6.8747 C   0  0  0  0  0  0  0  0  0  0  0  0
    0.5856   -3.6891    7.5989 N   0  0  0  0  0  0  0  0  0  0  0  0
    0.5243   -3.1211    8.8202 N   0  0  0  0  0  0  0  0  0  0  0  0
   -0.6946   -2.5613    8.8615 C   0  0  0  0  0  0  0  0  0  0  0  0
   -6.0723   -3.6853    5.9521 C   0  0  0  0  0  0  0  0  0  0  0  0
   -7.1232   -2.6648    5.4925 C   0  0  0  0  0  0  0  0  0  0  0  0
   -6.4707   -1.3144    5.6776 C   0  0  0  0  0  0  0  0  0  0  0  0
   -6.9755   -0.1575    5.3841 N   0  0  0  0  0  0  0  0  0  0  0  0
   -8.2588   -0.3086    4.8475 O   0  0  0  0  0  0  0  0  0  0  0  0
   -5.1463   -1.4870    6.2513 C   0  0  0  0  0  0  0  0  0  0  0  0
   -4.9222   -2.8481    6.4104 C   0  0  0  0  0  0  0  0  0  0  0  0
   -3.7118   -3.2923    6.9158 C   0  0  0  0  0  0  0  0  0  0  0  0
   -2.7261   -2.3480    7.2506 C   0  0  0  0  0  0  0  0  0  0  0  0
   -2.9794   -0.9706    7.0968 C   0  0  0  0  0  0  0  0  0  0  0  0
   -4.2052   -0.5291    6.5885 C   0  0  0  0  0  0  0  0  0  0  0  0
   -8.5185    0.6135    4.6653 H   0  0  0  0  0  0  0  0  0  0  0  0
   -1.1455   -1.7699    9.9984 C   0  0  0  0  0  0  0  0  0  0  0  0
   -0.7964   -0.4228   10.1043 C   0  0  0  0  0  0  0  0  0  0  0  0
   -1.1459    0.2529   11.2595 C   0  0  0  0  0  0  0  0  0  0  0  0
   -1.8044   -0.3172   12.2914 N   0  0  0  0  0  0  0  0  0  0  0  0
   -2.1445   -1.6174   12.1544 C   0  0  0  0  0  0  0  0  0  0  0  0
   -1.8470   -2.3784   11.0380 C   0  0  0  0  0  0  0  0  0  0  0  0
    1.7972   -4.3675    7.1784 C   0  0  0  0  0  0  0  0  0  0  0  0
    2.4382   -3.7821    5.9186 C   0  0  0  0  0  0  0  0  0  0  0  0
    3.9627   -3.7311    5.9349 C   0  0  0  0  0  0  0  0  0  0  0  0
    4.5131   -4.7936    5.1713 O   0  0  0  0  0  0  0  0  0  0  0  0
    4.5936   -5.5508    5.7856 H   0  0  0  0  0  0  0  0  0  0  0  0
  6  7  1  0  0  0
  7  8  1  0  0  0
  8  9  2  0  0  0
  9 10  1  0  0  0
  8 11  1  0  0  0
 11 12  2  0  0  0
  6 12  1  0  0  0
 12 13  1  0  0  0
 13 14  2  0  0  0
 14 15  1  0  0  0
 15 16  2  0  0  0
 11 16  1  0  0  0
 14  1  1  0  0  0
  1  2  2  0  0  0
  2  3  1  0  0  0
  3  4  1  0  0  0
  4  5  2  0  0  0
  1  5  1  0  0  0
  5 18  1  0  0  0
 18 19  2  0  0  0
 19 20  1  0  0  0
 20 21  2  0  0  0
 21 22  1  0  0  0
 22 23  2  0  0  0
 18 23  1  0  0  0
  3 24  1  0  0  0
 24 25  1  0  0  0
 25 26  1  0  0  0
 26 27  1  0  0  0
 10 17  1  0  0  0
 27 28  1  0  0  0
M  END
> <minimizedAffinity>
-9.64784

$$$$
mol_44587190_1


 28 31  0  0  0  0  0  0  0  0999 V2000
   -2.1610   -3.0850    7.0331 C   0  0  0  0  0  0  0  0  0  0  0  0
   -3.0741   -3.3768    6.0463 C   0  0  0  0  0  0  0  0  0  0  0  0
   -4.1574   -2.5836    6.2956 N   0  0  0  0  0  0  0  0  0  0  0  0
   -3.9956   -1.7631    7.3533 N   0  0  0  0  0  0  0  0  0  0  0  0
   -2.7813   -2.0773    7.8303 C   0  0  0  0  0  0  0  0  0  0  0  0
    2.6890   -3.7626    5.8747 C   0  0  0  0  0  0  0  0  0  0  0  0
    3.6330   -4.8782    6.3454 C   0  0  0  0  0  0  0  0  0  0  0  0
    2.7986   -5.7416    7.2629 C   0  0  0  0  0  0  0  0  0  0  0  0
    3.1718   -6.8260    7.8663 N   0  0  0  0  0  0  0  0  0  0  0  0
    4.5032   -7.1226    7.5547 O   0  0  0  0  0  0  0  0  0  0  0  0
    1.4654   -5.1757    7.3865 C   0  0  0  0  0  0  0  0  0  0  0  0
    1.4069   -4.0388    6.5915 C   0  0  0  0  0  0  0  0  0  0  0  0
    0.2271   -3.3189    6.5048 C   0  0  0  0  0  0  0  0  0  0  0  0
   -0.8963   -3.7641    7.2226 C   0  0  0  0  0  0  0  0  0  0  0  0
   -0.8116   -4.9111    8.0365 C   0  0  0  0  0  0  0  0  0  0  0  0
    0.3841   -5.6315    8.1214 C   0  0  0  0  0  0  0  0  0  0  0  0
    4.6555   -7.9466    8.0535 H   0  0  0  0  0  0  0  0  0  0  0  0
   -2.2400   -1.4641    9.0357 C   0  0  0  0  0  0  0  0  0  0  0  0
   -1.9109   -2.2497   10.1413 C   0  0  0  0  0  0  0  0  0  0  0  0
   -1.5155   -1.6097   11.3020 C   0  0  0  0  0  0  0  0  0  0  0  0
   -1.4313   -0.2678   11.4268 N   0  0  0  0  0  0  0  0  0  0  0  0
   -1.7394    0.4669   10.3358 C   0  0  0  0  0  0  0  0  0  0  0  0
   -2.1391   -0.0769    9.1281 C   0  0  0  0  0  0  0  0  0  0  0  0
   -5.3960   -2.5524    5.5408 C   0  0  0  0  0  0  0  0  0  0  0  0
   -6.3590   -1.4407    5.9625 C   0  0  0  0  0  0  0  0  0  0  0  0
   -6.1485   -0.1040    5.2582 C   0  0  0  0  0  0  0  0  0  0  0  0
   -5.3461    0.7624    6.0458 O   0  0  0  0  0  0  0  0  0  0  0  0
   -5.9654    1.2401    6.6335 H   0  0  0  0  0  0  0  0  0  0  0  0
  6  7  1  0  0  0
  7  8  1  0  0  0
  8  9  2  0  0  0
  9 10  1  0  0  0
  8 11  1  0  0  0
 11 12  2  0  0  0
  6 12  1  0  0  0
 12 13  1  0  0  0
 13 14  2  0  0  0
 14 15  1  0  0  0
 15 16  2  0  0  0
 11 16  1  0  0  0
 14  1  1  0  0  0
  1  2  2  0  0  0
  2  3  1  0  0  0
  3  4  1  0  0  0
  4  5  2  0  0  0
  1  5  1  0  0  0
  5 18  1  0  0  0
 18 19  2  0  0  0
 19 20  1  0  0  0
 20 21  2  0  0  0
 21 22  1  0  0  0
 22 23  2  0  0  0
 18 23  1  0  0  0
  3 24  1  0  0  0
 24 25  1  0  0  0
 25 26  1  0  0  0
 26 27  1  0  0  0
 10 17  1  0  0  0
 27 28  1  0  0  0
M  END
> <minimizedAffinity>
-9.47117

$$$$
mol_44587190_1


 28 31  0  0  0  0  0  0  0  0999 V2000
   -0.1350   -3.3629    8.1435 C   0  0  0  0  0  0  0  0  0  0  0  0
    1.0024   -3.9267    7.6132 C   0  0  0  0  0  0  0  0  0  0  0  0
    2.0209   -3.5638    8.4473 N   0  0  0  0  0  0  0  0  0  0  0  0
    1.6181   -2.8373    9.5093 N   0  0  0  0  0  0  0  0  0  0  0  0
    0.2978   -2.6866    9.3228 C   0  0  0  0  0  0  0  0  0  0  0  0
   -4.3700   -1.0901    6.6524 C   0  0  0  0  0  0  0  0  0  0  0  0
   -5.6629   -1.7338    6.1316 C   0  0  0  0  0  0  0  0  0  0  0  0
   -5.3953   -3.2210    6.1392 C   0  0  0  0  0  0  0  0  0  0  0  0
   -6.2220   -4.1638    5.8121 N   0  0  0  0  0  0  0  0  0  0  0  0
   -7.4544   -3.6204    5.4329 O   0  0  0  0  0  0  0  0  0  0  0  0
   -4.0327   -3.4693    6.5804 C   0  0  0  0  0  0  0  0  0  0  0  0
   -3.4464   -2.2447    6.8709 C   0  0  0  0  0  0  0  0  0  0  0  0
   -2.1459   -2.1988    7.3447 C   0  0  0  0  0  0  0  0  0  0  0  0
   -1.4463   -3.4036    7.5307 C   0  0  0  0  0  0  0  0  0  0  0  0
   -2.0538   -4.6349    7.2146 C   0  0  0  0  0  0  0  0  0  0  0  0
   -3.3665   -4.6733    6.7338 C   0  0  0  0  0  0  0  0  0  0  0  0
   -7.9776   -4.4163    5.2237 H   0  0  0  0  0  0  0  0  0  0  0  0
   -0.5252   -1.8876   10.2207 C   0  0  0  0  0  0  0  0  0  0  0  0
   -0.4350   -0.4949   10.2102 C   0  0  0  0  0  0  0  0  0  0  0  0
   -1.1460    0.2122   11.1629 C   0  0  0  0  0  0  0  0  0  0  0  0
   -1.9214   -0.3684   12.1036 N   0  0  0  0  0  0  0  0  0  0  0  0
   -2.0036   -1.7167   12.0794 C   0  0  0  0  0  0  0  0  0  0  0  0
   -1.3374   -2.5132   11.1652 C   0  0  0  0  0  0  0  0  0  0  0  0
    3.4248   -3.8943    8.2895 C   0  0  0  0  0  0  0  0  0  0  0  0
    4.1255   -3.1315    7.1636 C   0  0  0  0  0  0  0  0  0  0  0  0
    3.9188   -3.7097    5.7672 C   0  0  0  0  0  0  0  0  0  0  0  0
    4.1419   -5.1116    5.7615 O   0  0  0  0  0  0  0  0  0  0  0  0
    5.0997   -5.2294    5.6011 H   0  0  0  0  0  0  0  0  0  0  0  0
  6  7  1  0  0  0
  7  8  1  0  0  0
  8  9  2  0  0  0
  9 10  1  0  0  0
  8 11  1  0  0  0
 11 12  2  0  0  0
  6 12  1  0  0  0
 12 13  1  0  0  0
 13 14  2  0  0  0
 14 15  1  0  0  0
 15 16  2  0  0  0
 11 16  1  0  0  0
 14  1  1  0  0  0
  1  2  2  0  0  0
  2  3  1  0  0  0
  3  4  1  0  0  0
  4  5  2  0  0  0
  1  5  1  0  0  0
  5 18  1  0  0  0
 18 19  2  0  0  0
 19 20  1  0  0  0
 20 21  2  0  0  0
 21 22  1  0  0  0
 22 23  2  0  0  0
 18 23  1  0  0  0
  3 24  1  0  0  0
 24 25  1  0  0  0
 25 26  1  0  0  0
 26 27  1  0  0  0
 10 17  1  0  0  0
 27 28  1  0  0  0
M  END
> <minimizedAffinity>
-9.07456

$$$$
mol_11653652_2


 30 34  0  0  0  0  0  0  0  0999 V2000
    0.1315   -3.7668    7.3314 N   0  0  0  0  0  0  0  0  0  0  0  0
   -1.0248   -3.5459    6.6296 C   0  0  0  0  0  0  0  0  0  0  0  0
   -1.7895   -2.7082    7.4109 C   0  0  0  0  0  0  0  0  0  0  0  0
   -1.0373   -2.5284    8.6072 C   0  0  0  0  0  0  0  0  0  0  0  0
    0.1384   -3.1652    8.5365 N   0  0  0  0  0  0  0  0  0  0  0  0
   -3.0429   -2.1052    7.0059 C   0  0  0  0  0  0  0  0  0  0  0  0
   -4.1205   -2.9470    6.6775 C   0  0  0  0  0  0  0  0  0  0  0  0
   -5.2956   -2.3843    6.2072 C   0  0  0  0  0  0  0  0  0  0  0  0
   -5.3943   -1.0064    6.0712 C   0  0  0  0  0  0  0  0  0  0  0  0
   -4.3595   -0.1466    6.3992 C   0  0  0  0  0  0  0  0  0  0  0  0
   -3.1697   -0.7084    6.8760 C   0  0  0  0  0  0  0  0  0  0  0  0
   -6.7113   -0.7018    5.5350 C   0  0  0  0  0  0  0  0  0  0  0  0
   -7.1128    0.5008    5.2684 N   0  0  0  0  0  0  0  0  0  0  0  0
   -8.4176    0.4771    4.7626 O   0  0  0  0  0  0  0  0  0  0  0  0
   -7.4921   -1.9825    5.3501 C   0  0  0  0  0  0  0  0  0  0  0  0
   -6.5333   -3.1030    5.7766 C   0  0  0  0  0  0  0  0  0  0  0  0
   -8.5929    1.4211    4.5929 H   0  0  0  0  0  0  0  0  0  0  0  0
    2.4289   -3.6944    6.4039 C   0  0  0  0  0  0  0  0  0  0  0  0
    3.6288   -4.5404    5.9893 C   0  0  0  0  0  0  0  0  0  0  0  0
    4.0637   -5.4101    7.0765 N   0  0  0  0  0  0  0  0  0  0  0  0
    3.0023   -6.3213    7.4969 C   0  0  0  0  0  0  0  0  0  0  0  0
    1.7763   -5.5528    7.9721 C   0  0  0  0  0  0  0  0  0  0  0  0
    1.2716   -4.5754    6.8955 C   0  0  0  0  0  0  0  0  0  0  0  0
    4.8787   -5.9491    6.7826 H   0  0  0  0  0  0  0  0  0  0  0  0
   -1.4148   -1.7667    9.7889 C   0  0  0  0  0  0  0  0  0  0  0  0
   -1.9591   -2.4113   10.8980 C   0  0  0  0  0  0  0  0  0  0  0  0
   -2.2558   -1.6474   12.0127 C   0  0  0  0  0  0  0  0  0  0  0  0
   -2.0579   -0.3126   12.0857 N   0  0  0  0  0  0  0  0  0  0  0  0
   -1.5476    0.2881   10.9893 C   0  0  0  0  0  0  0  0  0  0  0  0
   -1.2094   -0.3870    9.8305 C   0  0  0  0  0  0  0  0  0  0  0  0
 18 19  1  0  0  0
 19 20  1  0  0  0
 20 21  1  0  0  0
 21 22  1  0  0  0
 22 23  1  0  0  0
 18 23  1  0  0  0
 23  1  1  0  0  0
  1  2  1  0  0  0
  2  3  2  0  0  0
  3  4  1  0  0  0
  4  5  2  0  0  0
  1  5  1  0  0  0
  4 25  1  0  0  0
 25 26  2  0  0  0
 26 27  1  0  0  0
 27 28  2  0  0  0
 28 29  1  0  0  0
 29 30  2  0  0  0
 25 30  1  0  0  0
  3  6  1  0  0  0
  6  7  2  0  0  0
  7  8  1  0  0  0
  8  9  2  0  0  0
  9 10  1  0  0  0
 10 11  2  0  0  0
  6 11  1  0  0  0
  9 12  1  0  0  0
 12 13  2  0  0  0
 13 14  1  0  0  0
 12 15  1  0  0  0
 15 16  1  0  0  0
  8 16  1  0  0  0
 20 24  1  0  0  0
 14 17  1  0  0  0
M  END
> <minimizedAffinity>
-10.69973

$$$$
mol_11653652_2


 30 34  0  0  0  0  0  0  0  0999 V2000
   -4.0611   -2.0598    6.4418 N   0  0  0  0  0  0  0  0  0  0  0  0
   -2.9993   -2.8651    6.1220 C   0  0  0  0  0  0  0  0  0  0  0  0
   -2.1130   -2.7599    7.1710 C   0  0  0  0  0  0  0  0  0  0  0  0
   -2.6971   -1.8082    8.0555 C   0  0  0  0  0  0  0  0  0  0  0  0
   -3.8920   -1.4041    7.6062 N   0  0  0  0  0  0  0  0  0  0  0  0
   -0.9040   -3.5437    7.3218 C   0  0  0  0  0  0  0  0  0  0  0  0
    0.2286   -3.1868    6.5685 C   0  0  0  0  0  0  0  0  0  0  0  0
    1.3623   -3.9795    6.6401 C   0  0  0  0  0  0  0  0  0  0  0  0
    1.3663   -5.1055    7.4519 C   0  0  0  0  0  0  0  0  0  0  0  0
    0.2750   -5.4783    8.2187 C   0  0  0  0  0  0  0  0  0  0  0  0
   -0.8733   -4.6812    8.1519 C   0  0  0  0  0  0  0  0  0  0  0  0
    2.6590   -5.7561    7.3103 C   0  0  0  0  0  0  0  0  0  0  0  0
    2.9771   -6.8529    7.9221 N   0  0  0  0  0  0  0  0  0  0  0  0
    4.2803   -7.2371    7.5859 O   0  0  0  0  0  0  0  0  0  0  0  0
    3.5258   -4.9605    6.3615 C   0  0  0  0  0  0  0  0  0  0  0  0
    2.6462   -3.7905    5.8987 C   0  0  0  0  0  0  0  0  0  0  0  0
    4.3903   -8.0648    8.0896 H   0  0  0  0  0  0  0  0  0  0  0  0
   -6.3962   -2.8122    6.0886 C   0  0  0  0  0  0  0  0  0  0  0  0
   -7.6696   -2.5752    5.2826 C   0  0  0  0  0  0  0  0  0  0  0  0
   -8.1002   -1.1844    5.3706 N   0  0  0  0  0  0  0  0  0  0  0  0
   -7.0791   -0.2698    4.8662 C   0  0  0  0  0  0  0  0  0  0  0  0
   -5.7814   -0.4103    5.6510 C   0  0  0  0  0  0  0  0  0  0  0  0
   -5.2737   -1.8633    5.6451 C   0  0  0  0  0  0  0  0  0  0  0  0
   -8.9635   -1.0559    4.8421 H   0  0  0  0  0  0  0  0  0  0  0  0
   -2.1450   -1.2960    9.3012 C   0  0  0  0  0  0  0  0  0  0  0  0
   -1.8033    0.0498    9.4192 C   0  0  0  0  0  0  0  0  0  0  0  0
   -1.3278    0.4948   10.6399 C   0  0  0  0  0  0  0  0  0  0  0  0
   -1.1662   -0.3003   11.7207 N   0  0  0  0  0  0  0  0  0  0  0  0
   -1.4868   -1.6035   11.5712 C   0  0  0  0  0  0  0  0  0  0  0  0
   -1.9784   -2.1440   10.3968 C   0  0  0  0  0  0  0  0  0  0  0  0
 18 19  1  0  0  0
 19 20  1  0  0  0
 20 21  1  0  0  0
 21 22  1  0  0  0
 22 23  1  0  0  0
 18 23  1  0  0  0
 23  1  1  0  0  0
  1  2  1  0  0  0
  2  3  2  0  0  0
  3  4  1  0  0  0
  4  5  2  0  0  0
  1  5  1  0  0  0
  4 25  1  0  0  0
 25 26  2  0  0  0
 26 27  1  0  0  0
 27 28  2  0  0  0
 28 29  1  0  0  0
 29 30  2  0  0  0
 25 30  1  0  0  0
  3  6  1  0  0  0
  6  7  2  0  0  0
  7  8  1  0  0  0
  8  9  2  0  0  0
  9 10  1  0  0  0
 10 11  2  0  0  0
  6 11  1  0  0  0
  9 12  1  0  0  0
 12 13  2  0  0  0
 13 14  1  0  0  0
 12 15  1  0  0  0
 15 16  1  0  0  0
  8 16  1  0  0  0
 20 24  1  0  0  0
 14 17  1  0  0  0
M  END
> <minimizedAffinity>
-10.08478

$$$$
mol_11653652_2


 30 34  0  0  0  0  0  0  0  0999 V2000
   -0.4398   -2.3158    9.9731 N   0  0  0  0  0  0  0  0  0  0  0  0
   -1.5641   -1.6101    9.6321 C   0  0  0  0  0  0  0  0  0  0  0  0
   -1.8802   -1.9960    8.3483 C   0  0  0  0  0  0  0  0  0  0  0  0
   -0.8435   -2.8951    7.9659 C   0  0  0  0  0  0  0  0  0  0  0  0
    0.0168   -3.0935    8.9726 N   0  0  0  0  0  0  0  0  0  0  0  0
   -3.0744   -1.6006    7.6298 C   0  0  0  0  0  0  0  0  0  0  0  0
   -4.0249   -2.5862    7.3088 C   0  0  0  0  0  0  0  0  0  0  0  0
   -5.1281   -2.2354    6.5483 C   0  0  0  0  0  0  0  0  0  0  0  0
   -5.2815   -0.9241    6.1194 C   0  0  0  0  0  0  0  0  0  0  0  0
   -4.3739    0.0749    6.4293 C   0  0  0  0  0  0  0  0  0  0  0  0
   -3.2575   -0.2723    7.1983 C   0  0  0  0  0  0  0  0  0  0  0  0
   -6.4972   -0.8514    5.3248 C   0  0  0  0  0  0  0  0  0  0  0  0
   -6.9145    0.2355    4.7563 N   0  0  0  0  0  0  0  0  0  0  0  0
   -8.1044   -0.0057    4.0600 O   0  0  0  0  0  0  0  0  0  0  0  0
   -7.1561   -2.2108    5.2804 C   0  0  0  0  0  0  0  0  0  0  0  0
   -6.2249   -3.1351    6.0775 C   0  0  0  0  0  0  0  0  0  0  0  0
   -8.3015    0.8681    3.6748 H   0  0  0  0  0  0  0  0  0  0  0  0
   -0.6422   -2.7356   12.4075 C   0  0  0  0  0  0  0  0  0  0  0  0
    0.1052   -2.7209   13.7373 C   0  0  0  0  0  0  0  0  0  0  0  0
    1.3203   -3.5249   13.6701 N   0  0  0  0  0  0  0  0  0  0  0  0
    2.2351   -3.0363   12.6415 C   0  0  0  0  0  0  0  0  0  0  0  0
    1.5787   -3.0613   11.2674 C   0  0  0  0  0  0  0  0  0  0  0  0
    0.2607   -2.2665   11.2579 C   0  0  0  0  0  0  0  0  0  0  0  0
    1.7905   -3.5168   14.5757 H   0  0  0  0  0  0  0  0  0  0  0  0
   -0.6712   -3.5593    6.6821 C   0  0  0  0  0  0  0  0  0  0  0  0
    0.0995   -4.7163    6.5856 C   0  0  0  0  0  0  0  0  0  0  0  0
    0.1915   -5.3347    5.3514 C   0  0  0  0  0  0  0  0  0  0  0  0
   -0.4137   -4.8778    4.2328 N   0  0  0  0  0  0  0  0  0  0  0  0
   -1.1377   -3.7441    4.3520 C   0  0  0  0  0  0  0  0  0  0  0  0
   -1.2991   -3.0570    5.5415 C   0  0  0  0  0  0  0  0  0  0  0  0
 18 19  1  0  0  0
 19 20  1  0  0  0
 20 21  1  0  0  0
 21 22  1  0  0  0
 22 23  1  0  0  0
 18 23  1  0  0  0
 23  1  1  0  0  0
  1  2  1  0  0  0
  2  3  2  0  0  0
  3  4  1  0  0  0
  4  5  2  0  0  0
  1  5  1  0  0  0
  4 25  1  0  0  0
 25 26  2  0  0  0
 26 27  1  0  0  0
 27 28  2  0  0  0
 28 29  1  0  0  0
 29 30  2  0  0  0
 25 30  1  0  0  0
  3  6  1  0  0  0
  6  7  2  0  0  0
  7  8  1  0  0  0
  8  9  2  0  0  0
  9 10  1  0  0  0
 10 11  2  0  0  0
  6 11  1  0  0  0
  9 12  1  0  0  0
 12 13  2  0  0  0
 13 14  1  0  0  0
 12 15  1  0  0  0
 15 16  1  0  0  0
  8 16  1  0  0  0
 20 24  1  0  0  0
 14 17  1  0  0  0
M  END
> <minimizedAffinity>
-9.95349

$$$$
mol_139592319_3


 31 35  0  0  0  0  0  0  0  0999 V2000
   -2.9236   -1.7458    7.9832 C   0  0  0  0  0  0  0  0  0  0  0  0
   -2.8085   -1.1835    9.2327 C   0  0  0  0  0  0  0  0  0  0  0  0
   -1.5924   -1.5618    9.7149 N   0  0  0  0  0  0  0  0  0  0  0  0
   -0.9460   -2.4152    8.8906 N   0  0  0  0  0  0  0  0  0  0  0  0
   -1.7343   -2.5057    7.8062 C   0  0  0  0  0  0  0  0  0  0  0  0
   -6.8772    0.6490    4.1298 C   0  0  0  0  0  0  0  0  0  0  0  0
   -5.9726    1.1952    5.2427 C   0  0  0  0  0  0  0  0  0  0  0  0
   -5.4601   -0.0784    5.8366 C   0  0  0  0  0  0  0  0  0  0  0  0
   -6.2762   -1.1607    5.4828 C   0  0  0  0  0  0  0  0  0  0  0  0
   -7.4278   -0.7093    4.6205 C   0  0  0  0  0  0  0  0  0  0  0  0
   -5.9996   -2.4396    5.9405 C   0  0  0  0  0  0  0  0  0  0  0  0
   -4.8850   -2.6274    6.7621 C   0  0  0  0  0  0  0  0  0  0  0  0
   -4.0722   -1.5382    7.1290 C   0  0  0  0  0  0  0  0  0  0  0  0
   -4.3658   -0.2482    6.6663 C   0  0  0  0  0  0  0  0  0  0  0  0
   -8.6667   -0.5079    5.3851 N   0  0  0  0  0  0  0  0  0  0  0  0
   -9.2215    0.7614    4.9361 O   0  0  0  0  0  0  0  0  0  0  0  0
   -9.3661   -1.1780    5.0525 H   0  0  0  0  0  0  0  0  0  0  0  0
   -9.3547    1.2326    5.7815 H   0  0  0  0  0  0  0  0  0  0  0  0
   -0.9289   -1.1240   10.9427 C   0  0  0  0  0  0  0  0  0  0  0  0
   -1.0732    0.3787   11.2048 C   0  0  0  0  0  0  0  0  0  0  0  0
   -0.0417    1.2163   10.4570 C   0  0  0  0  0  0  0  0  0  0  0  0
    1.3163    0.7401   10.7047 N   0  0  0  0  0  0  0  0  0  0  0  0
    1.5052   -0.6520   10.3092 C   0  0  0  0  0  0  0  0  0  0  0  0
    0.5342   -1.5817   11.0315 C   0  0  0  0  0  0  0  0  0  0  0  0
    1.9784    1.3289   10.1971 H   0  0  0  0  0  0  0  0  0  0  0  0
   -1.3420   -3.2877    6.6396 C   0  0  0  0  0  0  0  0  0  0  0  0
   -0.6327   -4.4804    6.7941 C   0  0  0  0  0  0  0  0  0  0  0  0
   -0.2412   -5.1634    5.6564 C   0  0  0  0  0  0  0  0  0  0  0  0
   -0.5035   -4.7422    4.4011 N   0  0  0  0  0  0  0  0  0  0  0  0
   -1.2026   -3.5922    4.2799 C   0  0  0  0  0  0  0  0  0  0  0  0
   -1.6447   -2.8399    5.3546 C   0  0  0  0  0  0  0  0  0  0  0  0
  6  7  1  0  0  0
  7  8  1  0  0  0
  8  9  2  0  0  0
  9 10  1  0  0  0
  6 10  1  0  0  0
 10 15  1  0  0  0
 15 16  1  0  0  0
  9 11  1  0  0  0
 11 12  2  0  0  0
 12 13  1  0  0  0
 13 14  2  0  0  0
  8 14  1  0  0  0
 13  1  1  0  0  0
  1  2  2  0  0  0
  2  3  1  0  0  0
  3  4  1  0  0  0
  4  5  2  0  0  0
  1  5  1  0  0  0
  5 26  1  0  0  0
 26 27  2  0  0  0
 27 28  1  0  0  0
 28 29  2  0  0  0
 29 30  1  0  0  0
 30 31  2  0  0  0
 26 31  1  0  0  0
  3 19  1  0  0  0
 19 20  1  0  0  0
 20 21  1  0  0  0
 21 22  1  0  0  0
 22 23  1  0  0  0
 23 24  1  0  0  0
 19 24  1  0  0  0
 15 17  1  0  0  0
 16 18  1  0  0  0
 22 25  1  0  0  0
M  END
> <minimizedAffinity>
-10.41760

$$$$
mol_139592319_3


 31 35  0  0  0  0  0  0  0  0999 V2000
   -0.1465   -3.0551    8.0617 C   0  0  0  0  0  0  0  0  0  0  0  0
    0.9823   -3.5576    7.4585 C   0  0  0  0  0  0  0  0  0  0  0  0
    1.9882   -3.4460    8.3697 N   0  0  0  0  0  0  0  0  0  0  0  0
    1.6017   -2.8141    9.4997 N   0  0  0  0  0  0  0  0  0  0  0  0
    0.2842   -2.6038    9.3400 C   0  0  0  0  0  0  0  0  0  0  0  0
   -5.4994   -1.3065    5.9394 C   0  0  0  0  0  0  0  0  0  0  0  0
   -4.6681   -0.9928    7.1907 C   0  0  0  0  0  0  0  0  0  0  0  0
   -3.5597   -1.9867    7.0463 C   0  0  0  0  0  0  0  0  0  0  0  0
   -3.9204   -3.0158    6.1668 C   0  0  0  0  0  0  0  0  0  0  0  0
   -5.3197   -2.8127    5.6431 C   0  0  0  0  0  0  0  0  0  0  0  0
   -3.0495   -4.0605    5.8990 C   0  0  0  0  0  0  0  0  0  0  0  0
   -1.7998   -4.0640    6.5241 C   0  0  0  0  0  0  0  0  0  0  0  0
   -1.4418   -3.0375    7.4183 C   0  0  0  0  0  0  0  0  0  0  0  0
   -2.3334   -1.9900    7.6873 C   0  0  0  0  0  0  0  0  0  0  0  0
   -6.3221   -3.5972    6.3780 N   0  0  0  0  0  0  0  0  0  0  0  0
   -6.9307   -4.4944    5.4060 O   0  0  0  0  0  0  0  0  0  0  0  0
   -5.8331   -4.2503    6.9970 H   0  0  0  0  0  0  0  0  0  0  0  0
   -7.8822   -4.3138    5.5343 H   0  0  0  0  0  0  0  0  0  0  0  0
    3.3557   -3.9564    8.2760 C   0  0  0  0  0  0  0  0  0  0  0  0
    4.1108   -3.4397    7.0470 C   0  0  0  0  0  0  0  0  0  0  0  0
    3.8207   -4.2461    5.7860 C   0  0  0  0  0  0  0  0  0  0  0  0
    4.0310   -5.6747    6.0035 N   0  0  0  0  0  0  0  0  0  0  0  0
    3.1954   -6.2098    7.0736 C   0  0  0  0  0  0  0  0  0  0  0  0
    3.4361   -5.4854    8.3950 C   0  0  0  0  0  0  0  0  0  0  0  0
    3.8370   -6.1801    5.1377 H   0  0  0  0  0  0  0  0  0  0  0  0
   -0.5263   -2.0013   10.3919 C   0  0  0  0  0  0  0  0  0  0  0  0
   -0.5304   -0.6172   10.5759 C   0  0  0  0  0  0  0  0  0  0  0  0
   -1.2778   -0.0956   11.6167 C   0  0  0  0  0  0  0  0  0  0  0  0
   -2.0044   -0.8486   12.4694 N   0  0  0  0  0  0  0  0  0  0  0  0
   -1.9936   -2.1837   12.2610 C   0  0  0  0  0  0  0  0  0  0  0  0
   -1.2845   -2.8014   11.2453 C   0  0  0  0  0  0  0  0  0  0  0  0
  6  7  1  0  0  0
  7  8  1  0  0  0
  8  9  2  0  0  0
  9 10  1  0  0  0
  6 10  1  0  0  0
 10 15  1  0  0  0
 15 16  1  0  0  0
  9 11  1  0  0  0
 11 12  2  0  0  0
 12 13  1  0  0  0
 13 14  2  0  0  0
  8 14  1  0  0  0
 13  1  1  0  0  0
  1  2  2  0  0  0
  2  3  1  0  0  0
  3  4  1  0  0  0
  4  5  2  0  0  0
  1  5  1  0  0  0
  5 26  1  0  0  0
 26 27  2  0  0  0
 27 28  1  0  0  0
 28 29  2  0  0  0
 29 30  1  0  0  0
 30 31  2  0  0  0
 26 31  1  0  0  0
  3 19  1  0  0  0
 19 20  1  0  0  0
 20 21  1  0  0  0
 21 22  1  0  0  0
 22 23  1  0  0  0
 23 24  1  0  0  0
 19 24  1  0  0  0
 15 17  1  0  0  0
 16 18  1  0  0  0
 22 25  1  0  0  0
M  END
> <minimizedAffinity>
-10.05446

$$$$
mol_139592319_3


 31 35  0  0  0  0  0  0  0  0999 V2000
   -2.1833   -2.6744    7.2346 C   0  0  0  0  0  0  0  0  0  0  0  0
   -1.5377   -3.6243    6.4787 C   0  0  0  0  0  0  0  0  0  0  0  0
   -0.5495   -4.1354    7.2640 N   0  0  0  0  0  0  0  0  0  0  0  0
   -0.4534   -3.5084    8.4570 N   0  0  0  0  0  0  0  0  0  0  0  0
   -1.4753   -2.6360    8.4678 C   0  0  0  0  0  0  0  0  0  0  0  0
   -7.7350   -1.1356    5.4955 C   0  0  0  0  0  0  0  0  0  0  0  0
   -6.8688   -2.3975    5.3840 C   0  0  0  0  0  0  0  0  0  0  0  0
   -5.5601   -1.8843    5.8950 C   0  0  0  0  0  0  0  0  0  0  0  0
   -5.5169   -0.4848    5.8466 C   0  0  0  0  0  0  0  0  0  0  0  0
   -6.7987    0.0757    5.2840 C   0  0  0  0  0  0  0  0  0  0  0  0
   -4.3868    0.2065    6.2545 C   0  0  0  0  0  0  0  0  0  0  0  0
   -3.2897   -0.5237    6.7189 C   0  0  0  0  0  0  0  0  0  0  0  0
   -3.3273   -1.9304    6.7553 C   0  0  0  0  0  0  0  0  0  0  0  0
   -4.4727   -2.6192    6.3333 C   0  0  0  0  0  0  0  0  0  0  0  0
   -6.6999    0.3965    3.8530 N   0  0  0  0  0  0  0  0  0  0  0  0
   -8.0608    0.3760    3.3354 O   0  0  0  0  0  0  0  0  0  0  0  0
   -6.4488    1.3848    3.7586 H   0  0  0  0  0  0  0  0  0  0  0  0
   -7.9763   -0.2283    2.5724 H   0  0  0  0  0  0  0  0  0  0  0  0
    0.3371   -5.2645    6.9839 C   0  0  0  0  0  0  0  0  0  0  0  0
    1.1810   -5.6846    8.1918 C   0  0  0  0  0  0  0  0  0  0  0  0
    2.4462   -4.8495    8.3548 C   0  0  0  0  0  0  0  0  0  0  0  0
    3.2267   -4.8131    7.1212 N   0  0  0  0  0  0  0  0  0  0  0  0
    2.4757   -4.2647    5.9963 C   0  0  0  0  0  0  0  0  0  0  0  0
    1.1983   -5.0559    5.7297 C   0  0  0  0  0  0  0  0  0  0  0  0
    4.0684   -4.2547    7.2705 H   0  0  0  0  0  0  0  0  0  0  0  0
   -1.7611   -1.8085    9.6339 C   0  0  0  0  0  0  0  0  0  0  0  0
   -1.6508   -0.4186    9.5584 C   0  0  0  0  0  0  0  0  0  0  0  0
   -1.8860    0.3217   10.7033 C   0  0  0  0  0  0  0  0  0  0  0  0
   -2.2149   -0.2224   11.8940 N   0  0  0  0  0  0  0  0  0  0  0  0
   -2.3279   -1.5684   11.9363 C   0  0  0  0  0  0  0  0  0  0  0  0
   -2.1198   -2.3957   10.8462 C   0  0  0  0  0  0  0  0  0  0  0  0
  6  7  1  0  0  0
  7  8  1  0  0  0
  8  9  2  0  0  0
  9 10  1  0  0  0
  6 10  1  0  0  0
 10 15  1  0  0  0
 15 16  1  0  0  0
  9 11  1  0  0  0
 11 12  2  0  0  0
 12 13  1  0  0  0
 13 14  2  0  0  0
  8 14  1  0  0  0
 13  1  1  0  0  0
  1  2  2  0  0  0
  2  3  1  0  0  0
  3  4  1  0  0  0
  4  5  2  0  0  0
  1  5  1  0  0  0
  5 26  1  0  0  0
 26 27  2  0  0  0
 27 28  1  0  0  0
 28 29  2  0  0  0
 29 30  1  0  0  0
 30 31  2  0  0  0
 26 31  1  0  0  0
  3 19  1  0  0  0
 19 20  1  0  0  0
 20 21  1  0  0  0
 21 22  1  0  0  0
 22 23  1  0  0  0
 23 24  1  0  0  0
 19 24  1  0  0  0
 15 17  1  0  0  0
 16 18  1  0  0  0
 22 25  1  0  0  0
M  END
> <minimizedAffinity>
-9.70682

$$$$
mol_135927350_4


 31 35  0  0  0  0  0  0  0  0999 V2000
   -0.3001   -5.2193    7.9649 N   0  0  0  0  0  0  0  0  0  0  0  0
   -1.5204   -4.7134    7.2517 C   0  0  0  0  0  0  0  0  0  0  0  0
   -1.8608   -3.4194    7.9362 C   0  0  0  0  0  0  0  0  0  0  0  0
   -1.0735   -3.3049    9.0161 C   0  0  0  0  0  0  0  0  0  0  0  0
   -0.1838   -4.3462    9.0675 N   0  0  0  0  0  0  0  0  0  0  0  0
    0.3985   -4.5209    9.8810 H   0  0  0  0  0  0  0  0  0  0  0  0
   -2.8299   -2.4686    7.4069 C   0  0  0  0  0  0  0  0  0  0  0  0
   -4.0314   -2.9559    6.8623 C   0  0  0  0  0  0  0  0  0  0  0  0
   -4.9496   -2.0595    6.3423 C   0  0  0  0  0  0  0  0  0  0  0  0
   -4.6722   -0.7001    6.3615 C   0  0  0  0  0  0  0  0  0  0  0  0
   -3.5068   -0.1825    6.8997 C   0  0  0  0  0  0  0  0  0  0  0  0
   -2.5804   -1.0829    7.4354 C   0  0  0  0  0  0  0  0  0  0  0  0
   -5.7827   -0.0058    5.7303 C   0  0  0  0  0  0  0  0  0  0  0  0
   -5.8209    1.2783    5.5677 N   0  0  0  0  0  0  0  0  0  0  0  0
   -7.0050    1.6529    4.9227 O   0  0  0  0  0  0  0  0  0  0  0  0
   -6.8326   -1.0082    5.3089 C   0  0  0  0  0  0  0  0  0  0  0  0
   -6.2720   -2.3763    5.7225 C   0  0  0  0  0  0  0  0  0  0  0  0
   -6.8997    2.6186    4.8387 H   0  0  0  0  0  0  0  0  0  0  0  0
    1.4187   -3.7088    6.7699 C   0  0  0  0  0  0  0  0  0  0  0  0
    2.6856   -3.7658    5.9202 C   0  0  0  0  0  0  0  0  0  0  0  0
    3.7407   -4.5235    6.5886 N   0  0  0  0  0  0  0  0  0  0  0  0
    3.3189   -5.8973    6.8594 C   0  0  0  0  0  0  0  0  0  0  0  0
    2.0731   -5.9403    7.7422 C   0  0  0  0  0  0  0  0  0  0  0  0
    0.9220   -5.1290    7.1176 C   0  0  0  0  0  0  0  0  0  0  0  0
    4.5737   -4.5354    5.9997 H   0  0  0  0  0  0  0  0  0  0  0  0
   -1.0326   -2.2287   10.0042 C   0  0  0  0  0  0  0  0  0  0  0  0
    0.0109   -1.3018    9.9938 C   0  0  0  0  0  0  0  0  0  0  0  0
   -0.0042   -0.2821   10.9301 C   0  0  0  0  0  0  0  0  0  0  0  0
   -0.9672   -0.1340   11.8646 N   0  0  0  0  0  0  0  0  0  0  0  0
   -1.9611   -1.0479   11.8611 C   0  0  0  0  0  0  0  0  0  0  0  0
   -2.0377   -2.0992   10.9637 C   0  0  0  0  0  0  0  0  0  0  0  0
 19 20  1  0  0  0
 20 21  1  0  0  0
 21 22  1  0  0  0
 22 23  1  0  0  0
 23 24  1  0  0  0
 19 24  1  0  0  0
 24  1  1  0  0  0
  1  2  1  0  0  0
  2  3  1  0  0  0
  3  4  2  0  0  0
  4  5  1  0  0  0
  1  5  1  0  0  0
  4 26  1  0  0  0
 26 27  2  0  0  0
 27 28  1  0  0  0
 28 29  2  0  0  0
 29 30  1  0  0  0
 30 31  2  0  0  0
 26 31  1  0  0  0
  3  7  1  0  0  0
  7  8  2  0  0  0
  8  9  1  0  0  0
  9 10  2  0  0  0
 10 11  1  0  0  0
 11 12  2  0  0  0
  7 12  1  0  0  0
 10 13  1  0  0  0
 13 14  2  0  0  0
 14 15  1  0  0  0
 13 16  1  0  0  0
 16 17  1  0  0  0
  9 17  1  0  0  0
 21 25  1  0  0  0
  5  6  1  0  0  0
 15 18  1  0  0  0
M  END
> <minimizedAffinity>
-10.55498

$$$$
mol_135927350_4


 31 35  0  0  0  0  0  0  0  0999 V2000
   -3.6667   -1.3327    6.5828 N   0  0  0  0  0  0  0  0  0  0  0  0
   -2.4825   -2.2279    6.3593 C   0  0  0  0  0  0  0  0  0  0  0  0
   -1.7867   -2.2896    7.6901 C   0  0  0  0  0  0  0  0  0  0  0  0
   -2.3706   -1.3961    8.5023 C   0  0  0  0  0  0  0  0  0  0  0  0
   -3.4405   -0.8126    7.8751 N   0  0  0  0  0  0  0  0  0  0  0  0
   -3.9243   -0.0092    8.2649 H   0  0  0  0  0  0  0  0  0  0  0  0
   -0.7269   -3.2431    7.9918 C   0  0  0  0  0  0  0  0  0  0  0  0
    0.5099   -2.7596    8.4547 C   0  0  0  0  0  0  0  0  0  0  0  0
    1.5270   -3.6585    8.7275 C   0  0  0  0  0  0  0  0  0  0  0  0
    1.3154   -5.0166    8.5379 C   0  0  0  0  0  0  0  0  0  0  0  0
    0.1087   -5.5306    8.0958 C   0  0  0  0  0  0  0  0  0  0  0  0
   -0.9253   -4.6277    7.8284 C   0  0  0  0  0  0  0  0  0  0  0  0
    2.5475   -5.7139    8.8684 C   0  0  0  0  0  0  0  0  0  0  0  0
    2.6880   -6.9977    8.7726 N   0  0  0  0  0  0  0  0  0  0  0  0
    3.9824   -7.3756    9.1470 O   0  0  0  0  0  0  0  0  0  0  0  0
    3.5904   -4.7151    9.3148 C   0  0  0  0  0  0  0  0  0  0  0  0
    2.9024   -3.3457    9.2211 C   0  0  0  0  0  0  0  0  0  0  0  0
    3.9660   -8.3405    9.0077 H   0  0  0  0  0  0  0  0  0  0  0  0
   -6.0041   -1.6263    5.5271 C   0  0  0  0  0  0  0  0  0  0  0  0
   -7.2558   -2.4972    5.5977 C   0  0  0  0  0  0  0  0  0  0  0  0
   -6.9338   -3.9084    5.4001 N   0  0  0  0  0  0  0  0  0  0  0  0
   -5.9954   -4.3869    6.4146 C   0  0  0  0  0  0  0  0  0  0  0  0
   -4.6892   -3.5954    6.3916 C   0  0  0  0  0  0  0  0  0  0  0  0
   -4.9516   -2.0866    6.5591 C   0  0  0  0  0  0  0  0  0  0  0  0
   -7.7905   -4.4604    5.4448 H   0  0  0  0  0  0  0  0  0  0  0  0
   -2.0457   -1.0783    9.8914 C   0  0  0  0  0  0  0  0  0  0  0  0
   -1.4630    0.1477   10.2161 C   0  0  0  0  0  0  0  0  0  0  0  0
   -1.1974    0.4190   11.5475 C   0  0  0  0  0  0  0  0  0  0  0  0
   -1.4600   -0.4390   12.5562 N   0  0  0  0  0  0  0  0  0  0  0  0
   -2.0148   -1.6222   12.2168 C   0  0  0  0  0  0  0  0  0  0  0  0
   -2.3226   -1.9839   10.9165 C   0  0  0  0  0  0  0  0  0  0  0  0
 19 20  1  0  0  0
 20 21  1  0  0  0
 21 22  1  0  0  0
 22 23  1  0  0  0
 23 24  1  0  0  0
 19 24  1  0  0  0
 24  1  1  0  0  0
  1  2  1  0  0  0
  2  3  1  0  0  0
  3  4  2  0  0  0
  4  5  1  0  0  0
  1  5  1  0  0  0
  4 26  1  0  0  0
 26 27  2  0  0  0
 27 28  1  0  0  0
 28 29  2  0  0  0
 29 30  1  0  0  0
 30 31  2  0  0  0
 26 31  1  0  0  0
  3  7  1  0  0  0
  7  8  2  0  0  0
  8  9  1  0  0  0
  9 10  2  0  0  0
 10 11  1  0  0  0
 11 12  2  0  0  0
  7 12  1  0  0  0
 10 13  1  0  0  0
 13 14  2  0  0  0
 14 15  1  0  0  0
 13 16  1  0  0  0
 16 17  1  0  0  0
  9 17  1  0  0  0
 21 25  1  0  0  0
  5  6  1  0  0  0
 15 18  1  0  0  0
M  END
> <minimizedAffinity>
-9.97717

$$$$
mol_135927350_4


 31 35  0  0  0  0  0  0  0  0999 V2000
    0.9971   -3.7656    9.5262 N   0  0  0  0  0  0  0  0  0  0  0  0
   -0.3015   -3.6949    8.7765 C   0  0  0  0  0  0  0  0  0  0  0  0
   -0.8776   -2.3512    9.1249 C   0  0  0  0  0  0  0  0  0  0  0  0
   -0.1197   -1.8166   10.0939 C   0  0  0  0  0  0  0  0  0  0  0  0
    0.9521   -2.6282   10.3604 N   0  0  0  0  0  0  0  0  0  0  0  0
    1.5622   -2.4748   11.1577 H   0  0  0  0  0  0  0  0  0  0  0  0
   -2.0132   -1.7650    8.4248 C   0  0  0  0  0  0  0  0  0  0  0  0
   -2.8098   -2.5911    7.6120 C   0  0  0  0  0  0  0  0  0  0  0  0
   -3.8805   -2.0377    6.9306 C   0  0  0  0  0  0  0  0  0  0  0  0
   -4.1497   -0.6822    7.0546 C   0  0  0  0  0  0  0  0  0  0  0  0
   -3.3960    0.1595    7.8541 C   0  0  0  0  0  0  0  0  0  0  0  0
   -2.3194   -0.3964    8.5526 C   0  0  0  0  0  0  0  0  0  0  0  0
   -5.2960   -0.3731    6.2157 C   0  0  0  0  0  0  0  0  0  0  0  0
   -5.7870    0.8186    6.0901 N   0  0  0  0  0  0  0  0  0  0  0  0
   -6.8759    0.8069    5.2110 O   0  0  0  0  0  0  0  0  0  0  0  0
   -5.7836   -1.6341    5.5399 C   0  0  0  0  0  0  0  0  0  0  0  0
   -4.8366   -2.7418    6.0232 C   0  0  0  0  0  0  0  0  0  0  0  0
   -7.1313    1.7475    5.1835 H   0  0  0  0  0  0  0  0  0  0  0  0
    3.3732   -4.5942    8.9501 C   0  0  0  0  0  0  0  0  0  0  0  0
    4.4938   -4.4198    7.9284 C   0  0  0  0  0  0  0  0  0  0  0  0
    4.0204   -4.6770    6.5705 N   0  0  0  0  0  0  0  0  0  0  0  0
    2.9338   -3.7689    6.2053 C   0  0  0  0  0  0  0  0  0  0  0  0
    1.7448   -3.9028    7.1547 C   0  0  0  0  0  0  0  0  0  0  0  0
    2.1744   -3.6795    8.6172 C   0  0  0  0  0  0  0  0  0  0  0  0
    4.7933   -4.5603    5.9149 H   0  0  0  0  0  0  0  0  0  0  0  0
   -0.2780   -0.5304   10.7698 C   0  0  0  0  0  0  0  0  0  0  0  0
   -1.0581   -0.4316   11.9229 C   0  0  0  0  0  0  0  0  0  0  0  0
   -1.1584    0.8001   12.5471 C   0  0  0  0  0  0  0  0  0  0  0  0
   -0.5522    1.9205   12.1004 N   0  0  0  0  0  0  0  0  0  0  0  0
    0.1892    1.8025   10.9782 C   0  0  0  0  0  0  0  0  0  0  0  0
    0.3551    0.6152   10.2859 C   0  0  0  0  0  0  0  0  0  0  0  0
 19 20  1  0  0  0
 20 21  1  0  0  0
 21 22  1  0  0  0
 22 23  1  0  0  0
 23 24  1  0  0  0
 19 24  1  0  0  0
 24  1  1  0  0  0
  1  2  1  0  0  0
  2  3  1  0  0  0
  3  4  2  0  0  0
  4  5  1  0  0  0
  1  5  1  0  0  0
  4 26  1  0  0  0
 26 27  2  0  0  0
 27 28  1  0  0  0
 28 29  2  0  0  0
 29 30  1  0  0  0
 30 31  2  0  0  0
 26 31  1  0  0  0
  3  7  1  0  0  0
  7  8  2  0  0  0
  8  9  1  0  0  0
  9 10  2  0  0  0
 10 11  1  0  0  0
 11 12  2  0  0  0
  7 12  1  0  0  0
 10 13  1  0  0  0
 13 14  2  0  0  0
 14 15  1  0  0  0
 13 16  1  0  0  0
 16 17  1  0  0  0
  9 17  1  0  0  0
 21 25  1  0  0  0
  5  6  1  0  0  0
 15 18  1  0  0  0
M  END
> <minimizedAffinity>
-9.96928

$$$$
mol_91896025_5


 30 34  0  0  0  0  0  0  0  0999 V2000
   -1.4823   -1.9222    9.7122 N   0  0  0  0  0  0  0  0  0  0  0  0
   -2.6395   -1.3417    9.2686 C   0  0  0  0  0  0  0  0  0  0  0  0
   -2.8387   -1.8170    7.9911 C   0  0  0  0  0  0  0  0  0  0  0  0
   -1.7040   -2.6387    7.7202 C   0  0  0  0  0  0  0  0  0  0  0  0
   -0.8985   -2.7060    8.7904 N   0  0  0  0  0  0  0  0  0  0  0  0
   -4.0144   -1.5446    7.1880 C   0  0  0  0  0  0  0  0  0  0  0  0
   -4.2903   -0.2485    6.7352 C   0  0  0  0  0  0  0  0  0  0  0  0
   -5.3726   -0.0647    5.8879 C   0  0  0  0  0  0  0  0  0  0  0  0
   -6.1947   -1.1367    5.5110 C   0  0  0  0  0  0  0  0  0  0  0  0
   -5.9518   -2.4179    5.9778 C   0  0  0  0  0  0  0  0  0  0  0  0
   -4.8539   -2.6170    6.8168 C   0  0  0  0  0  0  0  0  0  0  0  0
   -7.2958   -0.6752    4.5949 C   0  0  0  0  0  0  0  0  0  0  0  0
   -6.7259    0.6778    4.1256 C   0  0  0  0  0  0  0  0  0  0  0  0
   -5.8621    1.2132    5.2793 C   0  0  0  0  0  0  0  0  0  0  0  0
   -8.5975   -0.6032    5.3331 N   0  0  0  0  0  0  0  0  0  0  0  0
   -9.2154    0.4540    5.1686 O   0  0  0  0  0  0  0  0  0  0  0  0
   -1.2708    0.7332   11.5977 C   0  0  0  0  0  0  0  0  0  0  0  0
   -1.6031   -0.7224   11.9445 C   0  0  0  0  0  0  0  0  0  0  0  0
   -0.8979   -1.7608   11.0445 C   0  0  0  0  0  0  0  0  0  0  0  0
    0.6066   -1.4679   10.9663 C   0  0  0  0  0  0  0  0  0  0  0  0
    0.8890   -0.0315   10.5323 C   0  0  0  0  0  0  0  0  0  0  0  0
    0.2286    0.9718   11.4741 C   0  0  0  0  0  0  0  0  0  0  0  0
    2.2981    0.1823   10.5201 O   0  0  0  0  0  0  0  0  0  0  0  0
    2.6230    0.1448   11.4358 H   0  0  0  0  0  0  0  0  0  0  0  0
   -1.3834   -3.3589    6.4913 C   0  0  0  0  0  0  0  0  0  0  0  0
   -1.7294   -2.8220    5.2514 C   0  0  0  0  0  0  0  0  0  0  0  0
   -1.3678   -3.5194    4.1121 C   0  0  0  0  0  0  0  0  0  0  0  0
   -0.7047   -4.6963    4.1281 N   0  0  0  0  0  0  0  0  0  0  0  0
   -0.3995   -5.2045    5.3406 C   0  0  0  0  0  0  0  0  0  0  0  0
   -0.7137   -4.5832    6.5364 C   0  0  0  0  0  0  0  0  0  0  0  0
 17 18  1  0  0  0
 18 19  1  0  0  0
 19 20  1  0  0  0
 20 21  1  0  0  0
 21 22  1  0  0  0
 17 22  1  0  0  0
 21 23  1  0  0  0
 19  1  1  0  0  0
  1  2  1  0  0  0
  2  3  2  0  0  0
  3  4  1  0  0  0
  4  5  2  0  0  0
  1  5  1  0  0  0
  4 25  1  0  0  0
 25 26  2  0  0  0
 26 27  1  0  0  0
 27 28  2  0  0  0
 28 29  1  0  0  0
 29 30  2  0  0  0
 25 30  1  0  0  0
  3  6  1  0  0  0
  6  7  2  0  0  0
  7  8  1  0  0  0
  8  9  2  0  0  0
  9 10  1  0  0  0
 10 11  2  0  0  0
  6 11  1  0  0  0
  9 12  1  0  0  0
 12 13  1  0  0  0
 13 14  1  0  0  0
  8 14  1  0  0  0
 12 15  1  0  0  0
 15 16  2  0  0  0
 23 24  1  0  0  0
M  END
> <minimizedAffinity>
-10.76297

$$$$
mol_91896025_5


 30 34  0  0  0  0  0  0  0  0999 V2000
    0.7563   -1.4835   10.6467 N   0  0  0  0  0  0  0  0  0  0  0  0
   -0.4735   -1.3819   10.0548 C   0  0  0  0  0  0  0  0  0  0  0  0
   -0.4861   -2.3139    9.0405 C   0  0  0  0  0  0  0  0  0  0  0  0
    0.8176   -2.8939    9.0538 C   0  0  0  0  0  0  0  0  0  0  0  0
    1.5535   -2.3880   10.0543 N   0  0  0  0  0  0  0  0  0  0  0  0
   -1.6438   -2.6239    8.2250 C   0  0  0  0  0  0  0  0  0  0  0  0
   -2.6470   -1.6707    8.0102 C   0  0  0  0  0  0  0  0  0  0  0  0
   -3.6799   -1.9880    7.1410 C   0  0  0  0  0  0  0  0  0  0  0  0
   -3.7448   -3.2391    6.5103 C   0  0  0  0  0  0  0  0  0  0  0  0
   -2.7762   -4.2022    6.7393 C   0  0  0  0  0  0  0  0  0  0  0  0
   -1.7223   -3.8865    7.5986 C   0  0  0  0  0  0  0  0  0  0  0  0
   -4.9583   -3.3343    5.6255 C   0  0  0  0  0  0  0  0  0  0  0  0
   -5.3091   -1.8421    5.4638 C   0  0  0  0  0  0  0  0  0  0  0  0
   -4.8547   -1.1427    6.7554 C   0  0  0  0  0  0  0  0  0  0  0  0
   -6.0150   -4.1767    6.2721 N   0  0  0  0  0  0  0  0  0  0  0  0
   -7.1050   -4.1566    5.6908 O   0  0  0  0  0  0  0  0  0  0  0  0
   -0.9731   -0.0410   13.0088 C   0  0  0  0  0  0  0  0  0  0  0  0
    0.3179   -0.8651   13.0680 C   0  0  0  0  0  0  0  0  0  0  0  0
    1.2106   -0.7277   11.8151 C   0  0  0  0  0  0  0  0  0  0  0  0
    1.4324    0.7524   11.4752 C   0  0  0  0  0  0  0  0  0  0  0  0
    0.1154    1.5130   11.3400 C   0  0  0  0  0  0  0  0  0  0  0  0
   -0.7182    1.4081   12.6144 C   0  0  0  0  0  0  0  0  0  0  0  0
    0.3956    2.8832   11.0652 O   0  0  0  0  0  0  0  0  0  0  0  0
    0.8144    3.2751   11.8503 H   0  0  0  0  0  0  0  0  0  0  0  0
    1.3626   -3.9108    8.1591 C   0  0  0  0  0  0  0  0  0  0  0  0
    1.6749   -5.1803    8.6452 C   0  0  0  0  0  0  0  0  0  0  0  0
    2.1490   -6.1250    7.7521 C   0  0  0  0  0  0  0  0  0  0  0  0
    2.3358   -5.8893    6.4350 N   0  0  0  0  0  0  0  0  0  0  0  0
    2.0455   -4.6473    5.9936 C   0  0  0  0  0  0  0  0  0  0  0  0
    1.5636   -3.6356    6.8051 C   0  0  0  0  0  0  0  0  0  0  0  0
 17 18  1  0  0  0
 18 19  1  0  0  0
 19 20  1  0  0  0
 20 21  1  0  0  0
 21 22  1  0  0  0
 17 22  1  0  0  0
 21 23  1  0  0  0
 19  1  1  0  0  0
  1  2  1  0  0  0
  2  3  2  0  0  0
  3  4  1  0  0  0
  4  5  2  0  0  0
  1  5  1  0  0  0
  4 25  1  0  0  0
 25 26  2  0  0  0
 26 27  1  0  0  0
 27 28  2  0  0  0
 28 29  1  0  0  0
 29 30  2  0  0  0
 25 30  1  0  0  0
  3  6  1  0  0  0
  6  7  2  0  0  0
  7  8  1  0  0  0
  8  9  2  0  0  0
  9 10  1  0  0  0
 10 11  2  0  0  0
  6 11  1  0  0  0
  9 12  1  0  0  0
 12 13  1  0  0  0
 13 14  1  0  0  0
  8 14  1  0  0  0
 12 15  1  0  0  0
 15 16  2  0  0  0
 23 24  1  0  0  0
M  END
> <minimizedAffinity>
-9.76960

$$$$
mol_91896025_5


 30 34  0  0  0  0  0  0  0  0999 V2000
    1.3066   -3.4145    9.4753 N   0  0  0  0  0  0  0  0  0  0  0  0
    0.1656   -3.4944    8.7239 C   0  0  0  0  0  0  0  0  0  0  0  0
   -0.5770   -2.3778    9.0390 C   0  0  0  0  0  0  0  0  0  0  0  0
    0.1744   -1.7060   10.0491 C   0  0  0  0  0  0  0  0  0  0  0  0
    1.3300   -2.3439   10.2864 N   0  0  0  0  0  0  0  0  0  0  0  0
   -1.8156   -2.0044    8.3850 C   0  0  0  0  0  0  0  0  0  0  0  0
   -2.2981   -2.7330    7.2908 C   0  0  0  0  0  0  0  0  0  0  0  0
   -3.5369   -2.3923    6.7689 C   0  0  0  0  0  0  0  0  0  0  0  0
   -4.2833   -1.3282    7.2960 C   0  0  0  0  0  0  0  0  0  0  0  0
   -3.8028   -0.5792    8.3573 C   0  0  0  0  0  0  0  0  0  0  0  0
   -2.5649   -0.9254    8.9018 C   0  0  0  0  0  0  0  0  0  0  0  0
   -5.5820   -1.1615    6.5543 C   0  0  0  0  0  0  0  0  0  0  0  0
   -5.6937   -2.5360    5.8656 C   0  0  0  0  0  0  0  0  0  0  0  0
   -4.2556   -3.0178    5.6133 C   0  0  0  0  0  0  0  0  0  0  0  0
   -5.5123    0.0163    5.6311 N   0  0  0  0  0  0  0  0  0  0  0  0
   -5.8638    1.0837    6.1443 O   0  0  0  0  0  0  0  0  0  0  0  0
    4.4010   -2.9411    8.5524 C   0  0  0  0  0  0  0  0  0  0  0  0
    3.8114   -3.7318    9.7257 C   0  0  0  0  0  0  0  0  0  0  0  0
    2.4283   -4.3541    9.4338 C   0  0  0  0  0  0  0  0  0  0  0  0
    2.4598   -5.1332    8.1118 C   0  0  0  0  0  0  0  0  0  0  0  0
    2.9713   -4.2783    6.9547 C   0  0  0  0  0  0  0  0  0  0  0  0
    4.3639   -3.7260    7.2474 C   0  0  0  0  0  0  0  0  0  0  0  0
    3.0124   -5.0727    5.7721 O   0  0  0  0  0  0  0  0  0  0  0  0
    3.6976   -5.7538    5.8825 H   0  0  0  0  0  0  0  0  0  0  0  0
   -0.1721   -0.4845   10.7700 C   0  0  0  0  0  0  0  0  0  0  0  0
   -0.9050   -0.5514   11.9547 C   0  0  0  0  0  0  0  0  0  0  0  0
   -1.1737    0.6286   12.6259 C   0  0  0  0  0  0  0  0  0  0  0  0
   -0.7746    1.8462   12.1979 N   0  0  0  0  0  0  0  0  0  0  0  0
   -0.0847    1.8859   11.0385 C   0  0  0  0  0  0  0  0  0  0  0  0
    0.2369    0.7635   10.2959 C   0  0  0  0  0  0  0  0  0  0  0  0
 17 18  1  0  0  0
 18 19  1  0  0  0
 19 20  1  0  0  0
 20 21  1  0  0  0
 21 22  1  0  0  0
 17 22  1  0  0  0
 21 23  1  0  0  0
 19  1  1  0  0  0
  1  2  1  0  0  0
  2  3  2  0  0  0
  3  4  1  0  0  0
  4  5  2  0  0  0
  1  5  1  0  0  0
  4 25  1  0  0  0
 25 26  2  0  0  0
 26 27  1  0  0  0
 27 28  2  0  0  0
 28 29  1  0  0  0
 29 30  2  0  0  0
 25 30  1  0  0  0
  3  6  1  0  0  0
  6  7  2  0  0  0
  7  8  1  0  0  0
  8  9  2  0  0  0
  9 10  1  0  0  0
 10 11  2  0  0  0
  6 11  1  0  0  0
  9 12  1  0  0  0
 12 13  1  0  0  0
 13 14  1  0  0  0
  8 14  1  0  0  0
 12 15  1  0  0  0
 15 16  2  0  0  0
 23 24  1  0  0  0
M  END
> <minimizedAffinity>
-9.74723

$$$$
mol_91896028_6


 27 30  0  0  0  0  0  0  0  0999 V2000
   -2.9218   -1.5163    7.8838 C   0  0  0  0  0  0  0  0  0  0  0  0
   -2.7338   -0.9081    9.1033 C   0  0  0  0  0  0  0  0  0  0  0  0
   -1.5319   -1.3548    9.5646 N   0  0  0  0  0  0  0  0  0  0  0  0
   -0.9101   -2.1994    8.7179 N   0  0  0  0  0  0  0  0  0  0  0  0
   -1.7605   -2.3220    7.6844 C   0  0  0  0  0  0  0  0  0  0  0  0
   -6.9843    0.6258    3.9765 C   0  0  0  0  0  0  0  0  0  0  0  0
   -6.0721    1.2454    5.0478 C   0  0  0  0  0  0  0  0  0  0  0  0
   -5.5362    0.0171    5.7164 C   0  0  0  0  0  0  0  0  0  0  0  0
   -6.3470   -1.0928    5.4412 C   0  0  0  0  0  0  0  0  0  0  0  0
   -7.5014   -0.7054    4.5563 C   0  0  0  0  0  0  0  0  0  0  0  0
   -6.0529   -2.3385    5.9731 C   0  0  0  0  0  0  0  0  0  0  0  0
   -4.9222   -2.4628    6.7854 C   0  0  0  0  0  0  0  0  0  0  0  0
   -4.1094   -1.3476    7.0704 C   0  0  0  0  0  0  0  0  0  0  0  0
   -4.4260   -0.0902    6.5397 C   0  0  0  0  0  0  0  0  0  0  0  0
   -8.7675   -0.6123    5.3536 N   0  0  0  0  0  0  0  0  0  0  0  0
   -9.3101    0.4973    5.3203 O   0  0  0  0  0  0  0  0  0  0  0  0
   -1.4516   -3.1905    6.5547 C   0  0  0  0  0  0  0  0  0  0  0  0
   -0.8051   -4.4119    6.7497 C   0  0  0  0  0  0  0  0  0  0  0  0
   -0.5018   -5.1768    5.6372 C   0  0  0  0  0  0  0  0  0  0  0  0
   -0.7912   -4.8091    4.3710 N   0  0  0  0  0  0  0  0  0  0  0  0
   -1.4284   -3.6289    4.2108 C   0  0  0  0  0  0  0  0  0  0  0  0
   -1.7804   -2.7956    5.2578 C   0  0  0  0  0  0  0  0  0  0  0  0
   -0.8787   -0.9644   10.7990 C   0  0  0  0  0  0  0  0  0  0  0  0
   -0.9215    0.5358   11.0920 C   0  0  0  0  0  0  0  0  0  0  0  0
   -0.0509    1.4032   10.1873 C   0  0  0  0  0  0  0  0  0  0  0  0
    0.3138    2.6149   10.8296 O   0  0  0  0  0  0  0  0  0  0  0  0
   -0.4560    3.2143   10.7144 H   0  0  0  0  0  0  0  0  0  0  0  0
  6  7  1  0  0  0
  7  8  1  0  0  0
  8  9  2  0  0  0
  9 10  1  0  0  0
  6 10  1  0  0  0
 10 15  1  0  0  0
 15 16  2  0  0  0
  9 11  1  0  0  0
 11 12  2  0  0  0
 12 13  1  0  0  0
 13 14  2  0  0  0
  8 14  1  0  0  0
 13  1  1  0  0  0
  1  2  2  0  0  0
  2  3  1  0  0  0
  3  4  1  0  0  0
  4  5  2  0  0  0
  1  5  1  0  0  0
  5 17  1  0  0  0
 17 18  2  0  0  0
 18 19  1  0  0  0
 19 20  2  0  0  0
 20 21  1  0  0  0
 21 22  2  0  0  0
 17 22  1  0  0  0
  3 23  1  0  0  0
 23 24  1  0  0  0
 24 25  1  0  0  0
 25 26  1  0  0  0
 26 27  1  0  0  0
M  END
> <minimizedAffinity>
-9.70841

$$$$
mol_91896028_6


 27 30  0  0  0  0  0  0  0  0999 V2000
   -2.7993   -2.4676    6.7625 C   0  0  0  0  0  0  0  0  0  0  0  0
   -3.8595   -2.7124    5.9207 C   0  0  0  0  0  0  0  0  0  0  0  0
   -4.9158   -2.0232    6.4367 N   0  0  0  0  0  0  0  0  0  0  0  0
   -4.6121   -1.3259    7.5495 N   0  0  0  0  0  0  0  0  0  0  0  0
   -3.3158   -1.6016    7.7728 C   0  0  0  0  0  0  0  0  0  0  0  0
    2.1787   -5.7810    7.5373 C   0  0  0  0  0  0  0  0  0  0  0  0
    1.2375   -4.9967    8.4662 C   0  0  0  0  0  0  0  0  0  0  0  0
    0.3768   -4.2832    7.4696 C   0  0  0  0  0  0  0  0  0  0  0  0
    0.9968   -4.2468    6.2129 C   0  0  0  0  0  0  0  0  0  0  0  0
    2.3326   -4.9394    6.2554 C   0  0  0  0  0  0  0  0  0  0  0  0
    0.3893   -3.6178    5.1375 C   0  0  0  0  0  0  0  0  0  0  0  0
   -0.8619   -3.0267    5.3350 C   0  0  0  0  0  0  0  0  0  0  0  0
   -1.4844   -3.0548    6.5988 C   0  0  0  0  0  0  0  0  0  0  0  0
   -0.8531   -3.6799    7.6821 C   0  0  0  0  0  0  0  0  0  0  0  0
    3.4456   -3.9352    6.2736 N   0  0  0  0  0  0  0  0  0  0  0  0
    4.2172   -4.0124    5.3116 O   0  0  0  0  0  0  0  0  0  0  0  0
   -2.6155   -1.0451    8.9243 C   0  0  0  0  0  0  0  0  0  0  0  0
   -1.9380    0.1712    8.8278 C   0  0  0  0  0  0  0  0  0  0  0  0
   -1.2578    0.6316    9.9414 C   0  0  0  0  0  0  0  0  0  0  0  0
   -1.2073   -0.0293   11.1173 N   0  0  0  0  0  0  0  0  0  0  0  0
   -1.8820   -1.1974   11.1882 C   0  0  0  0  0  0  0  0  0  0  0  0
   -2.5963   -1.7391   10.1343 C   0  0  0  0  0  0  0  0  0  0  0  0
   -6.2506   -1.9374    5.8767 C   0  0  0  0  0  0  0  0  0  0  0  0
   -6.5764   -0.5970    5.2168 C   0  0  0  0  0  0  0  0  0  0  0  0
   -8.0632   -0.2906    5.0595 C   0  0  0  0  0  0  0  0  0  0  0  0
   -8.4173    0.9068    5.7337 O   0  0  0  0  0  0  0  0  0  0  0  0
   -8.5385    0.6514    6.6745 H   0  0  0  0  0  0  0  0  0  0  0  0
  6  7  1  0  0  0
  7  8  1  0  0  0
  8  9  2  0  0  0
  9 10  1  0  0  0
  6 10  1  0  0  0
 10 15  1  0  0  0
 15 16  2  0  0  0
  9 11  1  0  0  0
 11 12  2  0  0  0
 12 13  1  0  0  0
 13 14  2  0  0  0
  8 14  1  0  0  0
 13  1  1  0  0  0
  1  2  2  0  0  0
  2  3  1  0  0  0
  3  4  1  0  0  0
  4  5  2  0  0  0
  1  5  1  0  0  0
  5 17  1  0  0  0
 17 18  2  0  0  0
 18 19  1  0  0  0
 19 20  2  0  0  0
 20 21  1  0  0  0
 21 22  2  0  0  0
 17 22  1  0  0  0
  3 23  1  0  0  0
 23 24  1  0  0  0
 24 25  1  0  0  0
 25 26  1  0  0  0
 26 27  1  0  0  0
M  END
> <minimizedAffinity>
-8.94109

$$$$
mol_91896028_6


 27 30  0  0  0  0  0  0  0  0999 V2000
   -2.0241   -3.1235    7.0960 C   0  0  0  0  0  0  0  0  0  0  0  0
   -2.9186   -3.4224    6.0944 C   0  0  0  0  0  0  0  0  0  0  0  0
   -4.0138   -2.6449    6.3244 N   0  0  0  0  0  0  0  0  0  0  0  0
   -3.8874   -1.8407    7.3988 N   0  0  0  0  0  0  0  0  0  0  0  0
   -2.6735   -2.1347    7.8948 C   0  0  0  0  0  0  0  0  0  0  0  0
    3.8904   -4.2953    7.0222 C   0  0  0  0  0  0  0  0  0  0  0  0
    2.8974   -3.6433    6.0460 C   0  0  0  0  0  0  0  0  0  0  0  0
    1.5936   -3.9340    6.7233 C   0  0  0  0  0  0  0  0  0  0  0  0
    1.7346   -4.9804    7.6453 C   0  0  0  0  0  0  0  0  0  0  0  0
    3.1531   -5.4834    7.6706 C   0  0  0  0  0  0  0  0  0  0  0  0
    0.6492   -5.4342    8.3784 C   0  0  0  0  0  0  0  0  0  0  0  0
   -0.5892   -4.8168    8.1811 C   0  0  0  0  0  0  0  0  0  0  0  0
   -0.7361   -3.7699    7.2495 C   0  0  0  0  0  0  0  0  0  0  0  0
    0.3651   -3.3306    6.5030 C   0  0  0  0  0  0  0  0  0  0  0  0
    3.2624   -6.7868    6.9379 N   0  0  0  0  0  0  0  0  0  0  0  0
    4.1290   -7.5485    7.3799 O   0  0  0  0  0  0  0  0  0  0  0  0
   -2.1733   -1.4798    9.0977 C   0  0  0  0  0  0  0  0  0  0  0  0
   -1.9049   -2.2168   10.2521 C   0  0  0  0  0  0  0  0  0  0  0  0
   -1.4698   -1.5371   11.3761 C   0  0  0  0  0  0  0  0  0  0  0  0
   -1.2927   -0.1997   11.4237 N   0  0  0  0  0  0  0  0  0  0  0  0
   -1.5470    0.4884   10.2895 C   0  0  0  0  0  0  0  0  0  0  0  0
   -1.9795   -0.0984    9.1135 C   0  0  0  0  0  0  0  0  0  0  0  0
   -5.2125   -2.5752    5.5114 C   0  0  0  0  0  0  0  0  0  0  0  0
   -6.2457   -1.5552    5.9915 C   0  0  0  0  0  0  0  0  0  0  0  0
   -6.1576   -0.1789    5.3379 C   0  0  0  0  0  0  0  0  0  0  0  0
   -5.3031    0.6860    6.0696 O   0  0  0  0  0  0  0  0  0  0  0  0
   -5.8526    1.0367    6.8045 H   0  0  0  0  0  0  0  0  0  0  0  0
  6  7  1  0  0  0
  7  8  1  0  0  0
  8  9  2  0  0  0
  9 10  1  0  0  0
  6 10  1  0  0  0
 10 15  1  0  0  0
 15 16  2  0  0  0
  9 11  1  0  0  0
 11 12  2  0  0  0
 12 13  1  0  0  0
 13 14  2  0  0  0
  8 14  1  0  0  0
 13  1  1  0  0  0
  1  2  2  0  0  0
  2  3  1  0  0  0
  3  4  1  0  0  0
  4  5  2  0  0  0
  1  5  1  0  0  0
  5 17  1  0  0  0
 17 18  2  0  0  0
 18 19  1  0  0  0
 19 20  2  0  0  0
 20 21  1  0  0  0
 21 22  2  0  0  0
 17 22  1  0  0  0
  3 23  1  0  0  0
 23 24  1  0  0  0
 24 25  1  0  0  0
 25 26  1  0  0  0
 26 27  1  0  0  0
M  END
> <minimizedAffinity>
-8.93882

$$$$
mol_11624965_7


 29 33  0  0  0  0  0  0  0  0999 V2000
    0.3745   -4.4186    8.0183 N   0  0  0  0  0  0  0  0  0  0  0  0
   -0.7400   -4.2334    7.2465 C   0  0  0  0  0  0  0  0  0  0  0  0
   -1.4937   -3.2742    7.8879 C   0  0  0  0  0  0  0  0  0  0  0  0
   -0.7792   -2.9828    9.0838 C   0  0  0  0  0  0  0  0  0  0  0  0
    0.3607   -3.6843    9.1431 N   0  0  0  0  0  0  0  0  0  0  0  0
   -2.6858   -2.6744    7.3260 C   0  0  0  0  0  0  0  0  0  0  0  0
   -3.7391   -3.5089    6.9130 C   0  0  0  0  0  0  0  0  0  0  0  0
   -4.8824   -2.9331    6.3812 C   0  0  0  0  0  0  0  0  0  0  0  0
   -4.9663   -1.5525    6.2562 C   0  0  0  0  0  0  0  0  0  0  0  0
   -3.9473   -0.7021    6.6489 C   0  0  0  0  0  0  0  0  0  0  0  0
   -2.7952   -1.2755    7.1953 C   0  0  0  0  0  0  0  0  0  0  0  0
   -6.2596   -1.2294    5.6766 C   0  0  0  0  0  0  0  0  0  0  0  0
   -6.6421   -0.0187    5.4183 N   0  0  0  0  0  0  0  0  0  0  0  0
   -7.9299   -0.0203    4.8712 O   0  0  0  0  0  0  0  0  0  0  0  0
   -7.0437   -2.5002    5.4473 C   0  0  0  0  0  0  0  0  0  0  0  0
   -6.1085   -3.6350    5.8913 C   0  0  0  0  0  0  0  0  0  0  0  0
   -8.0930    0.9291    4.7196 H   0  0  0  0  0  0  0  0  0  0  0  0
    1.8431   -5.2666    6.2078 C   0  0  0  0  0  0  0  0  0  0  0  0
    2.5755   -3.9863    5.8340 C   0  0  0  0  0  0  0  0  0  0  0  0
    3.7721   -3.8705    6.6002 O   0  0  0  0  0  0  0  0  0  0  0  0
    3.5038   -3.7427    7.9973 C   0  0  0  0  0  0  0  0  0  0  0  0
    2.7819   -4.9813    8.5201 C   0  0  0  0  0  0  0  0  0  0  0  0
    1.5109   -5.2883    7.7068 C   0  0  0  0  0  0  0  0  0  0  0  0
   -1.1355   -2.0626   10.1527 C   0  0  0  0  0  0  0  0  0  0  0  0
   -1.9674   -2.4843   11.1894 C   0  0  0  0  0  0  0  0  0  0  0  0
   -2.2835   -1.5746   12.1820 C   0  0  0  0  0  0  0  0  0  0  0  0
   -1.8403   -0.2988   12.2004 N   0  0  0  0  0  0  0  0  0  0  0  0
   -1.0498    0.0868   11.1752 C   0  0  0  0  0  0  0  0  0  0  0  0
   -0.6669   -0.7493   10.1412 C   0  0  0  0  0  0  0  0  0  0  0  0
 18 19  1  0  0  0
 19 20  1  0  0  0
 20 21  1  0  0  0
 21 22  1  0  0  0
 22 23  1  0  0  0
 18 23  1  0  0  0
 23  1  1  0  0  0
  1  2  1  0  0  0
  2  3  2  0  0  0
  3  4  1  0  0  0
  4  5  2  0  0  0
  1  5  1  0  0  0
  4 24  1  0  0  0
 24 25  2  0  0  0
 25 26  1  0  0  0
 26 27  2  0  0  0
 27 28  1  0  0  0
 28 29  2  0  0  0
 24 29  1  0  0  0
  3  6  1  0  0  0
  6  7  2  0  0  0
  7  8  1  0  0  0
  8  9  2  0  0  0
  9 10  1  0  0  0
 10 11  2  0  0  0
  6 11  1  0  0  0
  9 12  1  0  0  0
 12 13  2  0  0  0
 13 14  1  0  0  0
 12 15  1  0  0  0
 15 16  1  0  0  0
  8 16  1  0  0  0
 14 17  1  0  0  0
M  END
> <minimizedAffinity>
-10.34818

$$$$
mol_11624965_7


 29 33  0  0  0  0  0  0  0  0999 V2000
    0.0465   -2.2087   10.1463 N   0  0  0  0  0  0  0  0  0  0  0  0
   -1.1006   -1.5737    9.7555 C   0  0  0  0  0  0  0  0  0  0  0  0
   -1.4024   -2.0664    8.5042 C   0  0  0  0  0  0  0  0  0  0  0  0
   -0.3357   -2.9549    8.1907 C   0  0  0  0  0  0  0  0  0  0  0  0
    0.5346   -3.0347    9.2061 N   0  0  0  0  0  0  0  0  0  0  0  0
   -2.6271   -1.7672    7.7920 C   0  0  0  0  0  0  0  0  0  0  0  0
   -3.4599   -2.8272    7.3927 C   0  0  0  0  0  0  0  0  0  0  0  0
   -4.6352   -2.5391    6.7166 C   0  0  0  0  0  0  0  0  0  0  0  0
   -4.9656   -1.2195    6.4373 C   0  0  0  0  0  0  0  0  0  0  0  0
   -4.1674   -0.1525    6.8121 C   0  0  0  0  0  0  0  0  0  0  0  0
   -2.9853   -0.4352    7.5031 C   0  0  0  0  0  0  0  0  0  0  0  0
   -6.2354   -1.2119    5.7297 C   0  0  0  0  0  0  0  0  0  0  0  0
   -6.8128   -0.1291    5.3139 N   0  0  0  0  0  0  0  0  0  0  0  0
   -8.0191   -0.4346    4.6740 O   0  0  0  0  0  0  0  0  0  0  0  0
   -6.7403   -2.6279    5.5801 C   0  0  0  0  0  0  0  0  0  0  0  0
   -5.6545   -3.5106    6.2137 C   0  0  0  0  0  0  0  0  0  0  0  0
   -8.3431    0.4461    4.4089 H   0  0  0  0  0  0  0  0  0  0  0  0
    2.2346   -1.9129   11.2773 C   0  0  0  0  0  0  0  0  0  0  0  0
    2.5857   -0.5050   10.8191 C   0  0  0  0  0  0  0  0  0  0  0  0
    2.0952    0.4477   11.7594 O   0  0  0  0  0  0  0  0  0  0  0  0
    0.6692    0.4355   11.8406 C   0  0  0  0  0  0  0  0  0  0  0  0
    0.1708   -0.9264   12.3153 C   0  0  0  0  0  0  0  0  0  0  0  0
    0.7161   -2.0712   11.4416 C   0  0  0  0  0  0  0  0  0  0  0  0
   -0.1259   -3.7286    6.9767 C   0  0  0  0  0  0  0  0  0  0  0  0
    0.6621   -4.8787    7.0086 C   0  0  0  0  0  0  0  0  0  0  0  0
    0.8379   -5.5806    5.8300 C   0  0  0  0  0  0  0  0  0  0  0  0
    0.2979   -5.2116    4.6482 N   0  0  0  0  0  0  0  0  0  0  0  0
   -0.4470   -4.0847    4.6438 C   0  0  0  0  0  0  0  0  0  0  0  0
   -0.6920   -3.3190    5.7700 C   0  0  0  0  0  0  0  0  0  0  0  0
 18 19  1  0  0  0
 19 20  1  0  0  0
 20 21  1  0  0  0
 21 22  1  0  0  0
 22 23  1  0  0  0
 18 23  1  0  0  0
 23  1  1  0  0  0
  1  2  1  0  0  0
  2  3  2  0  0  0
  3  4  1  0  0  0
  4  5  2  0  0  0
  1  5  1  0  0  0
  4 24  1  0  0  0
 24 25  2  0  0  0
 25 26  1  0  0  0
 26 27  2  0  0  0
 27 28  1  0  0  0
 28 29  2  0  0  0
 24 29  1  0  0  0
  3  6  1  0  0  0
  6  7  2  0  0  0
  7  8  1  0  0  0
  8  9  2  0  0  0
  9 10  1  0  0  0
 10 11  2  0  0  0
  6 11  1  0  0  0
  9 12  1  0  0  0
 12 13  2  0  0  0
 13 14  1  0  0  0
 12 15  1  0  0  0
 15 16  1  0  0  0
  8 16  1  0  0  0
 14 17  1  0  0  0
M  END
> <minimizedAffinity>
-10.11338

$$$$
mol_11624965_7


 29 33  0  0  0  0  0  0  0  0999 V2000
    1.8444   -3.3483    8.0627 N   0  0  0  0  0  0  0  0  0  0  0  0
    0.7479   -3.7380    7.3432 C   0  0  0  0  0  0  0  0  0  0  0  0
   -0.3468   -3.2362    8.0134 C   0  0  0  0  0  0  0  0  0  0  0  0
    0.1875   -2.6062    9.1725 C   0  0  0  0  0  0  0  0  0  0  0  0
    1.5252   -2.6781    9.1824 N   0  0  0  0  0  0  0  0  0  0  0  0
   -1.7013   -3.2926    7.5047 C   0  0  0  0  0  0  0  0  0  0  0  0
   -2.4039   -2.0920    7.3016 C   0  0  0  0  0  0  0  0  0  0  0  0
   -3.6982   -2.1471    6.8085 C   0  0  0  0  0  0  0  0  0  0  0  0
   -4.2807   -3.3774    6.5335 C   0  0  0  0  0  0  0  0  0  0  0  0
   -3.6195   -4.5782    6.7251 C   0  0  0  0  0  0  0  0  0  0  0  0
   -2.3102   -4.5296    7.2130 C   0  0  0  0  0  0  0  0  0  0  0  0
   -5.6247   -3.1390    6.0335 C   0  0  0  0  0  0  0  0  0  0  0  0
   -6.4388   -4.0893    5.6977 N   0  0  0  0  0  0  0  0  0  0  0  0
   -7.6529   -3.5562    5.2509 O   0  0  0  0  0  0  0  0  0  0  0  0
   -5.8860   -1.6523    5.9719 C   0  0  0  0  0  0  0  0  0  0  0  0
   -4.6086   -0.9969    6.5181 C   0  0  0  0  0  0  0  0  0  0  0  0
   -8.1673   -4.3575    5.0402 H   0  0  0  0  0  0  0  0  0  0  0  0
    4.0960   -3.9136    8.9373 C   0  0  0  0  0  0  0  0  0  0  0  0
    3.8569   -5.3470    9.3883 C   0  0  0  0  0  0  0  0  0  0  0  0
    4.1642   -6.2474    8.3265 O   0  0  0  0  0  0  0  0  0  0  0  0
    3.2982   -6.0686    7.2047 C   0  0  0  0  0  0  0  0  0  0  0  0
    3.4499   -4.6637    6.6287 C   0  0  0  0  0  0  0  0  0  0  0  0
    3.2452   -3.5800    7.7034 C   0  0  0  0  0  0  0  0  0  0  0  0
   -0.5233   -1.9374   10.2513 C   0  0  0  0  0  0  0  0  0  0  0  0
   -1.2658   -2.6828   11.1665 C   0  0  0  0  0  0  0  0  0  0  0  0
   -1.9290   -2.0049   12.1731 C   0  0  0  0  0  0  0  0  0  0  0  0
   -1.9063   -0.6619   12.3155 N   0  0  0  0  0  0  0  0  0  0  0  0
   -1.1927    0.0357   11.4051 C   0  0  0  0  0  0  0  0  0  0  0  0
   -0.4857   -0.5484   10.3690 C   0  0  0  0  0  0  0  0  0  0  0  0
 18 19  1  0  0  0
 19 20  1  0  0  0
 20 21  1  0  0  0
 21 22  1  0  0  0
 22 23  1  0  0  0
 18 23  1  0  0  0
 23  1  1  0  0  0
  1  2  1  0  0  0
  2  3  2  0  0  0
  3  4  1  0  0  0
  4  5  2  0  0  0
  1  5  1  0  0  0
  4 24  1  0  0  0
 24 25  2  0  0  0
 25 26  1  0  0  0
 26 27  2  0  0  0
 27 28  1  0  0  0
 28 29  2  0  0  0
 24 29  1  0  0  0
  3  6  1  0  0  0
  6  7  2  0  0  0
  7  8  1  0  0  0
  8  9  2  0  0  0
  9 10  1  0  0  0
 10 11  2  0  0  0
  6 11  1  0  0  0
  9 12  1  0  0  0
 12 13  2  0  0  0
 13 14  1  0  0  0
 12 15  1  0  0  0
 15 16  1  0  0  0
  8 16  1  0  0  0
 14 17  1  0  0  0
M  END
> <minimizedAffinity>
-9.86544

$$$$
mol_54586539_8


 32 37  0  0  0  0  0  0  0  0999 V2000
    0.0435   -3.6489    6.9251 N   0  0  0  0  0  0  0  0  0  0  0  0
   -1.1540   -3.5868    6.2680 C   0  0  0  0  0  0  0  0  0  0  0  0
   -2.0113   -2.8676    7.0762 C   0  0  0  0  0  0  0  0  0  0  0  0
   -1.2474   -2.6127    8.2601 C   0  0  0  0  0  0  0  0  0  0  0  0
   -0.0034   -3.1008    8.1481 N   0  0  0  0  0  0  0  0  0  0  0  0
   -3.3468   -2.4437    6.6662 C   0  0  0  0  0  0  0  0  0  0  0  0
   -3.6073   -1.0986    6.3454 C   0  0  0  0  0  0  0  0  0  0  0  0
   -4.8973   -0.7384    5.9807 C   0  0  0  0  0  0  0  0  0  0  0  0
   -5.9148   -1.7263    5.8995 C   0  0  0  0  0  0  0  0  0  0  0  0
   -5.6955   -3.0430    6.2166 C   0  0  0  0  0  0  0  0  0  0  0  0
   -4.4033   -3.3897    6.6216 C   0  0  0  0  0  0  0  0  0  0  0  0
   -7.0747   -1.0225    5.4907 C   0  0  0  0  0  0  0  0  0  0  0  0
   -6.8180    0.3125    5.3575 C   0  0  0  0  0  0  0  0  0  0  0  0
   -5.4060    0.6823    5.6544 C   0  0  0  0  0  0  0  0  0  0  0  0
   -8.0414    0.8669    4.9844 C   0  0  0  0  0  0  0  0  0  0  0  0
   -8.9946   -0.0759    4.8568 N   0  0  0  0  0  0  0  0  0  0  0  0
   -8.3619   -1.2389    5.1649 N   0  0  0  0  0  0  0  0  0  0  0  0
   -8.8813   -2.1087    5.1176 H   0  0  0  0  0  0  0  0  0  0  0  0
    1.8987   -6.0359    8.0788 C   0  0  0  0  0  0  0  0  0  0  0  0
    1.5130   -5.6979    6.6340 C   0  0  0  0  0  0  0  0  0  0  0  0
    1.2923   -4.1895    6.3845 C   0  0  0  0  0  0  0  0  0  0  0  0
    2.5096   -3.3991    6.8887 C   0  0  0  0  0  0  0  0  0  0  0  0
    2.7983   -3.6873    8.3605 C   0  0  0  0  0  0  0  0  0  0  0  0
    3.0469   -5.1755    8.5929 C   0  0  0  0  0  0  0  0  0  0  0  0
    3.9417   -2.9402    8.7660 O   0  0  0  0  0  0  0  0  0  0  0  0
    4.7225   -3.3018    8.3136 H   0  0  0  0  0  0  0  0  0  0  0  0
   -1.6438   -1.8905    9.4633 C   0  0  0  0  0  0  0  0  0  0  0  0
   -1.6681   -2.5516   10.6921 C   0  0  0  0  0  0  0  0  0  0  0  0
   -1.9597   -1.8137   11.8248 C   0  0  0  0  0  0  0  0  0  0  0  0
   -2.2317   -0.4908   11.8094 N   0  0  0  0  0  0  0  0  0  0  0  0
   -2.2296    0.1180   10.6036 C   0  0  0  0  0  0  0  0  0  0  0  0
   -1.9475   -0.5298    9.4138 C   0  0  0  0  0  0  0  0  0  0  0  0
 19 20  1  0  0  0
 20 21  1  0  0  0
 21 22  1  0  0  0
 22 23  1  0  0  0
 23 24  1  0  0  0
 19 24  1  0  0  0
 23 25  1  0  0  0
 21  1  1  0  0  0
  1  2  1  0  0  0
  2  3  2  0  0  0
  3  4  1  0  0  0
  4  5  2  0  0  0
  1  5  1  0  0  0
  4 27  1  0  0  0
 27 28  2  0  0  0
 28 29  1  0  0  0
 29 30  2  0  0  0
 30 31  1  0  0  0
 31 32  2  0  0  0
 27 32  1  0  0  0
  3  6  1  0  0  0
  6  7  2  0  0  0
  7  8  1  0  0  0
  8  9  2  0  0  0
  9 10  1  0  0  0
 10 11  2  0  0  0
  6 11  1  0  0  0
  9 12  1  0  0  0
 12 13  2  0  0  0
 13 14  1  0  0  0
  8 14  1  0  0  0
 13 15  1  0  0  0
 15 16  2  0  0  0
 16 17  1  0  0  0
 12 17  1  0  0  0
 25 26  1  0  0  0
 17 18  1  0  0  0
M  END
> <minimizedAffinity>
-11.15212

$$$$
mol_54586539_8


 32 37  0  0  0  0  0  0  0  0999 V2000
   -1.0237   -2.0746    9.7273 N   0  0  0  0  0  0  0  0  0  0  0  0
   -2.1776   -1.4791    9.2990 C   0  0  0  0  0  0  0  0  0  0  0  0
   -2.3991   -1.9271    8.0122 C   0  0  0  0  0  0  0  0  0  0  0  0
   -1.2532   -2.7338    7.7186 C   0  0  0  0  0  0  0  0  0  0  0  0
   -0.4283   -2.8054    8.7735 N   0  0  0  0  0  0  0  0  0  0  0  0
   -3.6148   -1.6457    7.2543 C   0  0  0  0  0  0  0  0  0  0  0  0
   -3.8783   -0.3499    6.7732 C   0  0  0  0  0  0  0  0  0  0  0  0
   -5.0570   -0.1253    6.0753 C   0  0  0  0  0  0  0  0  0  0  0  0
   -5.9510   -1.2006    5.8257 C   0  0  0  0  0  0  0  0  0  0  0  0
   -5.7282   -2.4720    6.2908 C   0  0  0  0  0  0  0  0  0  0  0  0
   -4.5584   -2.6806    7.0271 C   0  0  0  0  0  0  0  0  0  0  0  0
   -7.0167   -0.6257    5.0898 C   0  0  0  0  0  0  0  0  0  0  0  0
   -6.8273    0.7162    4.9178 C   0  0  0  0  0  0  0  0  0  0  0  0
   -5.5640    1.2239    5.5219 C   0  0  0  0  0  0  0  0  0  0  0  0
   -7.9529    1.1392    4.2126 C   0  0  0  0  0  0  0  0  0  0  0  0
   -8.7763    0.1115    3.9304 N   0  0  0  0  0  0  0  0  0  0  0  0
   -8.1627   -0.9718    4.4761 N   0  0  0  0  0  0  0  0  0  0  0  0
   -8.5924   -1.8845    4.3722 H   0  0  0  0  0  0  0  0  0  0  0  0
   -1.0871    0.3822   11.8323 C   0  0  0  0  0  0  0  0  0  0  0  0
   -1.2716   -1.1216   12.0668 C   0  0  0  0  0  0  0  0  0  0  0  0
   -0.4755   -2.0080   11.0836 C   0  0  0  0  0  0  0  0  0  0  0  0
    0.9976   -1.5717   11.0716 C   0  0  0  0  0  0  0  0  0  0  0  0
    1.1435   -0.0894   10.7338 C   0  0  0  0  0  0  0  0  0  0  0  0
    0.3804    0.7811   11.7290 C   0  0  0  0  0  0  0  0  0  0  0  0
    2.5250    0.2587   10.7518 O   0  0  0  0  0  0  0  0  0  0  0  0
    2.8433    0.2096   11.6691 H   0  0  0  0  0  0  0  0  0  0  0  0
   -0.9422   -3.4657    6.4964 C   0  0  0  0  0  0  0  0  0  0  0  0
   -0.0839   -4.5650    6.5462 C   0  0  0  0  0  0  0  0  0  0  0  0
    0.1161   -5.2903    5.3859 C   0  0  0  0  0  0  0  0  0  0  0  0
   -0.4644   -4.9904    4.2038 N   0  0  0  0  0  0  0  0  0  0  0  0
   -1.2675   -3.9046    4.1771 C   0  0  0  0  0  0  0  0  0  0  0  0
   -1.5344   -3.1163    5.2826 C   0  0  0  0  0  0  0  0  0  0  0  0
 19 20  1  0  0  0
 20 21  1  0  0  0
 21 22  1  0  0  0
 22 23  1  0  0  0
 23 24  1  0  0  0
 19 24  1  0  0  0
 23 25  1  0  0  0
 21  1  1  0  0  0
  1  2  1  0  0  0
  2  3  2  0  0  0
  3  4  1  0  0  0
  4  5  2  0  0  0
  1  5  1  0  0  0
  4 27  1  0  0  0
 27 28  2  0  0  0
 28 29  1  0  0  0
 29 30  2  0  0  0
 30 31  1  0  0  0
 31 32  2  0  0  0
 27 32  1  0  0  0
  3  6  1  0  0  0
  6  7  2  0  0  0
  7  8  1  0  0  0
  8  9  2  0  0  0
  9 10  1  0  0  0
 10 11  2  0  0  0
  6 11  1  0  0  0
  9 12  1  0  0  0
 12 13  2  0  0  0
 13 14  1  0  0  0
  8 14  1  0  0  0
 13 15  1  0  0  0
 15 16  2  0  0  0
 16 17  1  0  0  0
 12 17  1  0  0  0
 25 26  1  0  0  0
 17 18  1  0  0  0
M  END
> <minimizedAffinity>
-11.07334

$$$$
mol_54586539_8


 32 37  0  0  0  0  0  0  0  0999 V2000
   -0.2304   -4.5466    7.7661 N   0  0  0  0  0  0  0  0  0  0  0  0
   -1.3087   -4.1349    7.0332 C   0  0  0  0  0  0  0  0  0  0  0  0
   -1.8612   -3.0660    7.7097 C   0  0  0  0  0  0  0  0  0  0  0  0
   -1.0819   -2.9666    8.9067 C   0  0  0  0  0  0  0  0  0  0  0  0
   -0.0996   -3.8794    8.9220 N   0  0  0  0  0  0  0  0  0  0  0  0
   -2.9413   -2.2407    7.1770 C   0  0  0  0  0  0  0  0  0  0  0  0
   -4.1610   -2.8204    6.7814 C   0  0  0  0  0  0  0  0  0  0  0  0
   -5.1516   -1.9988    6.2614 C   0  0  0  0  0  0  0  0  0  0  0  0
   -4.9382   -0.5972    6.1730 C   0  0  0  0  0  0  0  0  0  0  0  0
   -3.7570   -0.0033    6.5394 C   0  0  0  0  0  0  0  0  0  0  0  0
   -2.7502   -0.8431    7.0245 C   0  0  0  0  0  0  0  0  0  0  0  0
   -6.1377   -0.0796    5.6240 C   0  0  0  0  0  0  0  0  0  0  0  0
   -7.0268   -1.0810    5.3544 C   0  0  0  0  0  0  0  0  0  0  0  0
   -6.5268   -2.4372    5.7137 C   0  0  0  0  0  0  0  0  0  0  0  0
   -8.1283   -0.4292    4.8018 C   0  0  0  0  0  0  0  0  0  0  0  0
   -7.9479    0.9049    4.7651 N   0  0  0  0  0  0  0  0  0  0  0  0
   -6.7095    1.0924    5.2933 N   0  0  0  0  0  0  0  0  0  0  0  0
   -6.3544    2.0373    5.3908 H   0  0  0  0  0  0  0  0  0  0  0  0
    2.7561   -5.0652    8.8988 C   0  0  0  0  0  0  0  0  0  0  0  0
    1.6684   -6.0664    8.4926 C   0  0  0  0  0  0  0  0  0  0  0  0
    0.7462   -5.5599    7.3615 C   0  0  0  0  0  0  0  0  0  0  0  0
    1.5983   -5.0758    6.1782 C   0  0  0  0  0  0  0  0  0  0  0  0
    2.6002   -4.0053    6.6061 C   0  0  0  0  0  0  0  0  0  0  0  0
    3.5284   -4.5244    7.7013 C   0  0  0  0  0  0  0  0  0  0  0  0
    3.3684   -3.6072    5.4742 O   0  0  0  0  0  0  0  0  0  0  0  0
    3.9383   -4.3498    5.2118 H   0  0  0  0  0  0  0  0  0  0  0  0
   -1.2125   -2.0148   10.0036 C   0  0  0  0  0  0  0  0  0  0  0  0
   -0.5202   -0.8040    9.9567 C   0  0  0  0  0  0  0  0  0  0  0  0
   -0.7389    0.1128   10.9687 C   0  0  0  0  0  0  0  0  0  0  0  0
   -1.5775   -0.1000   12.0059 N   0  0  0  0  0  0  0  0  0  0  0  0
   -2.2126   -1.2916   12.0418 C   0  0  0  0  0  0  0  0  0  0  0  0
   -2.0647   -2.2730   11.0775 C   0  0  0  0  0  0  0  0  0  0  0  0
 19 20  1  0  0  0
 20 21  1  0  0  0
 21 22  1  0  0  0
 22 23  1  0  0  0
 23 24  1  0  0  0
 19 24  1  0  0  0
 23 25  1  0  0  0
 21  1  1  0  0  0
  1  2  1  0  0  0
  2  3  2  0  0  0
  3  4  1  0  0  0
  4  5  2  0  0  0
  1  5  1  0  0  0
  4 27  1  0  0  0
 27 28  2  0  0  0
 28 29  1  0  0  0
 29 30  2  0  0  0
 30 31  1  0  0  0
 31 32  2  0  0  0
 27 32  1  0  0  0
  3  6  1  0  0  0
  6  7  2  0  0  0
  7  8  1  0  0  0
  8  9  2  0  0  0
  9 10  1  0  0  0
 10 11  2  0  0  0
  6 11  1  0  0  0
  9 12  1  0  0  0
 12 13  2  0  0  0
 13 14  1  0  0  0
  8 14  1  0  0  0
 13 15  1  0  0  0
 15 16  2  0  0  0
 16 17  1  0  0  0
 12 17  1  0  0  0
 25 26  1  0  0  0
 17 18  1  0  0  0
M  END
> <minimizedAffinity>
-10.93975

$$$$
mol_135438492_9


 27 30  0  0  0  0  0  0  0  0999 V2000
   -1.0977   -2.9120    7.5681 C   0  0  0  0  0  0  0  0  0  0  0  0
   -0.5171   -2.6077    8.7920 C   0  0  0  0  0  0  0  0  0  0  0  0
    0.7371   -3.1789    8.7468 N   0  0  0  0  0  0  0  0  0  0  0  0
    0.9994   -3.8065    7.5776 N   0  0  0  0  0  0  0  0  0  0  0  0
   -0.1255   -3.6586    6.8752 C   0  0  0  0  0  0  0  0  0  0  0  0
   -5.8141   -3.9795    6.1606 C   0  0  0  0  0  0  0  0  0  0  0  0
   -6.9230   -3.0090    5.7323 C   0  0  0  0  0  0  0  0  0  0  0  0
   -6.3040   -1.6326    5.8239 C   0  0  0  0  0  0  0  0  0  0  0  0
   -6.8683   -0.5054    5.5325 N   0  0  0  0  0  0  0  0  0  0  0  0
   -8.1828   -0.7167    5.0992 O   0  0  0  0  0  0  0  0  0  0  0  0
   -4.9349   -1.7463    6.3026 C   0  0  0  0  0  0  0  0  0  0  0  0
   -4.6595   -3.0930    6.4976 C   0  0  0  0  0  0  0  0  0  0  0  0
   -3.4068   -3.4852    6.9385 C   0  0  0  0  0  0  0  0  0  0  0  0
   -2.4286   -2.5044    7.1682 C   0  0  0  0  0  0  0  0  0  0  0  0
   -2.7327   -1.1407    6.9806 C   0  0  0  0  0  0  0  0  0  0  0  0
   -4.0022   -0.7511    6.5390 C   0  0  0  0  0  0  0  0  0  0  0  0
   -8.4874    0.1888    4.9048 H   0  0  0  0  0  0  0  0  0  0  0  0
   -1.0671   -1.9023    9.9458 C   0  0  0  0  0  0  0  0  0  0  0  0
   -1.7690   -2.5902   10.9334 C   0  0  0  0  0  0  0  0  0  0  0  0
   -2.2733   -1.8724   12.0037 C   0  0  0  0  0  0  0  0  0  0  0  0
   -2.1042   -0.5431   12.1606 N   0  0  0  0  0  0  0  0  0  0  0  0
   -1.3981    0.0961   11.2034 C   0  0  0  0  0  0  0  0  0  0  0  0
   -0.8652   -0.5310   10.0900 C   0  0  0  0  0  0  0  0  0  0  0  0
    1.7318   -3.2528    9.8061 C   0  0  0  0  0  0  0  0  0  0  0  0
    2.9236   -2.3366    9.5600 C   0  0  0  0  0  0  0  0  0  0  0  0
    3.7054   -2.7776    8.4519 O   0  0  0  0  0  0  0  0  0  0  0  0
    4.5207   -3.1652    8.8140 H   0  0  0  0  0  0  0  0  0  0  0  0
  6  7  1  0  0  0
  7  8  1  0  0  0
  8  9  2  0  0  0
  9 10  1  0  0  0
  8 11  1  0  0  0
 11 12  2  0  0  0
  6 12  1  0  0  0
 12 13  1  0  0  0
 13 14  2  0  0  0
 14 15  1  0  0  0
 15 16  2  0  0  0
 11 16  1  0  0  0
 14  1  1  0  0  0
  1  2  2  0  0  0
  2  3  1  0  0  0
  3  4  1  0  0  0
  4  5  2  0  0  0
  1  5  1  0  0  0
  3 24  1  0  0  0
 24 25  1  0  0  0
 25 26  1  0  0  0
  2 18  1  0  0  0
 18 19  2  0  0  0
 19 20  1  0  0  0
 20 21  2  0  0  0
 21 22  1  0  0  0
 22 23  2  0  0  0
 18 23  1  0  0  0
 10 17  1  0  0  0
 26 27  1  0  0  0
M  END
> <minimizedAffinity>
-8.90283

$$$$
mol_135438492_9


 27 30  0  0  0  0  0  0  0  0999 V2000
   -0.0290   -3.2311    7.9927 C   0  0  0  0  0  0  0  0  0  0  0  0
    0.3142   -2.6375    9.1998 C   0  0  0  0  0  0  0  0  0  0  0  0
    1.6827   -2.7781    9.2934 N   0  0  0  0  0  0  0  0  0  0  0  0
    2.2326   -3.4009    8.2258 N   0  0  0  0  0  0  0  0  0  0  0  0
    1.1862   -3.6914    7.4504 C   0  0  0  0  0  0  0  0  0  0  0  0
   -4.3546   -1.0853    6.5610 C   0  0  0  0  0  0  0  0  0  0  0  0
   -5.6498   -1.7677    6.1006 C   0  0  0  0  0  0  0  0  0  0  0  0
   -5.3602   -3.2506    6.1589 C   0  0  0  0  0  0  0  0  0  0  0  0
   -6.1773   -4.2139    5.8789 N   0  0  0  0  0  0  0  0  0  0  0  0
   -7.4231   -3.7004    5.4985 O   0  0  0  0  0  0  0  0  0  0  0  0
   -3.9862   -3.4610    6.5885 C   0  0  0  0  0  0  0  0  0  0  0  0
   -3.4126   -2.2171    6.8144 C   0  0  0  0  0  0  0  0  0  0  0  0
   -2.1020   -2.1300    7.2526 C   0  0  0  0  0  0  0  0  0  0  0  0
   -1.3787   -3.3131    7.4739 C   0  0  0  0  0  0  0  0  0  0  0  0
   -1.9733   -4.5664    7.2227 C   0  0  0  0  0  0  0  0  0  0  0  0
   -3.2970   -4.6468    6.7758 C   0  0  0  0  0  0  0  0  0  0  0  0
   -7.9398   -4.5094    5.3279 H   0  0  0  0  0  0  0  0  0  0  0  0
   -0.5306   -2.0351   10.2268 C   0  0  0  0  0  0  0  0  0  0  0  0
   -0.7169   -0.6552   10.2773 C   0  0  0  0  0  0  0  0  0  0  0  0
   -1.5240   -0.1359   11.2742 C   0  0  0  0  0  0  0  0  0  0  0  0
   -2.1637   -0.8920   12.1903 N   0  0  0  0  0  0  0  0  0  0  0  0
   -1.9880   -2.2281   12.1040 C   0  0  0  0  0  0  0  0  0  0  0  0
   -1.1911   -2.8412   11.1521 C   0  0  0  0  0  0  0  0  0  0  0  0
    2.5505   -2.4243   10.4063 C   0  0  0  0  0  0  0  0  0  0  0  0
    3.7053   -1.5227    9.9892 C   0  0  0  0  0  0  0  0  0  0  0  0
    4.7989   -2.2760    9.4693 O   0  0  0  0  0  0  0  0  0  0  0  0
    5.4966   -2.2713   10.1470 H   0  0  0  0  0  0  0  0  0  0  0  0
  6  7  1  0  0  0
  7  8  1  0  0  0
  8  9  2  0  0  0
  9 10  1  0  0  0
  8 11  1  0  0  0
 11 12  2  0  0  0
  6 12  1  0  0  0
 12 13  1  0  0  0
 13 14  2  0  0  0
 14 15  1  0  0  0
 15 16  2  0  0  0
 11 16  1  0  0  0
 14  1  1  0  0  0
  1  2  2  0  0  0
  2  3  1  0  0  0
  3  4  1  0  0  0
  4  5  2  0  0  0
  1  5  1  0  0  0
  3 24  1  0  0  0
 24 25  1  0  0  0
 25 26  1  0  0  0
  2 18  1  0  0  0
 18 19  2  0  0  0
 19 20  1  0  0  0
 20 21  2  0  0  0
 21 22  1  0  0  0
 22 23  2  0  0  0
 18 23  1  0  0  0
 10 17  1  0  0  0
 26 27  1  0  0  0
M  END
> <minimizedAffinity>
-8.84878

$$$$
mol_135438492_9


 27 30  0  0  0  0  0  0  0  0999 V2000
   -1.2703   -2.2079   10.9346 C   0  0  0  0  0  0  0  0  0  0  0  0
   -0.1901   -1.8143   11.7129 C   0  0  0  0  0  0  0  0  0  0  0  0
   -0.7380   -1.4203   12.9154 N   0  0  0  0  0  0  0  0  0  0  0  0
   -2.0835   -1.5526   12.9613 N   0  0  0  0  0  0  0  0  0  0  0  0
   -2.4018   -2.0112   11.7493 C   0  0  0  0  0  0  0  0  0  0  0  0
   -2.6467   -2.1737    6.0901 C   0  0  0  0  0  0  0  0  0  0  0  0
   -2.1861   -3.1070    4.9625 C   0  0  0  0  0  0  0  0  0  0  0  0
   -1.2078   -4.0607    5.6103 C   0  0  0  0  0  0  0  0  0  0  0  0
   -0.5832   -5.0398    5.0403 N   0  0  0  0  0  0  0  0  0  0  0  0
   -0.9358   -5.1205    3.6877 O   0  0  0  0  0  0  0  0  0  0  0  0
   -1.0544   -3.7187    7.0161 C   0  0  0  0  0  0  0  0  0  0  0  0
   -1.8783   -2.6344    7.2858 C   0  0  0  0  0  0  0  0  0  0  0  0
   -1.9373   -2.1135    8.5675 C   0  0  0  0  0  0  0  0  0  0  0  0
   -1.1653   -2.7071    9.5792 C   0  0  0  0  0  0  0  0  0  0  0  0
   -0.3221   -3.7970    9.2819 C   0  0  0  0  0  0  0  0  0  0  0  0
   -0.2642   -4.3156    7.9834 C   0  0  0  0  0  0  0  0  0  0  0  0
   -0.4174   -5.8874    3.3815 H   0  0  0  0  0  0  0  0  0  0  0  0
    1.2306   -1.7422   11.3847 C   0  0  0  0  0  0  0  0  0  0  0  0
    1.7474   -0.6493   10.6922 C   0  0  0  0  0  0  0  0  0  0  0  0
    3.1005   -0.6334   10.4024 C   0  0  0  0  0  0  0  0  0  0  0  0
    3.9577   -1.6069   10.7735 N   0  0  0  0  0  0  0  0  0  0  0  0
    3.4369   -2.6424   11.4663 C   0  0  0  0  0  0  0  0  0  0  0  0
    2.0962   -2.7553   11.7928 C   0  0  0  0  0  0  0  0  0  0  0  0
   -0.0658   -0.8209   14.0582 C   0  0  0  0  0  0  0  0  0  0  0  0
   -0.1043   -1.7080   15.2959 C   0  0  0  0  0  0  0  0  0  0  0  0
   -1.2731   -1.4694   16.0774 O   0  0  0  0  0  0  0  0  0  0  0  0
   -0.9928   -0.9748   16.8665 H   0  0  0  0  0  0  0  0  0  0  0  0
  6  7  1  0  0  0
  7  8  1  0  0  0
  8  9  2  0  0  0
  9 10  1  0  0  0
  8 11  1  0  0  0
 11 12  2  0  0  0
  6 12  1  0  0  0
 12 13  1  0  0  0
 13 14  2  0  0  0
 14 15  1  0  0  0
 15 16  2  0  0  0
 11 16  1  0  0  0
 14  1  1  0  0  0
  1  2  2  0  0  0
  2  3  1  0  0  0
  3  4  1  0  0  0
  4  5  2  0  0  0
  1  5  1  0  0  0
  3 24  1  0  0  0
 24 25  1  0  0  0
 25 26  1  0  0  0
  2 18  1  0  0  0
 18 19  2  0  0  0
 19 20  1  0  0  0
 20 21  2  0  0  0
 21 22  1  0  0  0
 22 23  2  0  0  0
 18 23  1  0  0  0
 10 17  1  0  0  0
 26 27  1  0  0  0
M  END
> <minimizedAffinity>
-8.40299

$$$$
mol_11717001_10


 27 30  0  0  0  0  0  0  0  0999 V2000
   -1.4272   -2.7828    7.4562 C   0  0  0  0  0  0  0  0  0  0  0  0
   -0.5497   -3.4253    6.6130 C   0  0  0  0  0  0  0  0  0  0  0  0
    0.6124   -3.5510    7.3166 N   0  0  0  0  0  0  0  0  0  0  0  0
    0.5574   -3.0238    8.5588 N   0  0  0  0  0  0  0  0  0  0  0  0
   -0.7045   -2.5814    8.6710 C   0  0  0  0  0  0  0  0  0  0  0  0
   -6.1201   -3.7999    5.9659 C   0  0  0  0  0  0  0  0  0  0  0  0
   -7.2217   -2.8170    5.5460 C   0  0  0  0  0  0  0  0  0  0  0  0
   -6.6031   -1.4451    5.6866 C   0  0  0  0  0  0  0  0  0  0  0  0
   -7.1570   -0.3079    5.4067 N   0  0  0  0  0  0  0  0  0  0  0  0
   -8.4593   -0.5049    4.9340 O   0  0  0  0  0  0  0  0  0  0  0  0
   -5.2486   -1.5709    6.1993 C   0  0  0  0  0  0  0  0  0  0  0  0
   -4.9777   -2.9224    6.3634 C   0  0  0  0  0  0  0  0  0  0  0  0
   -3.7344   -3.3243    6.8198 C   0  0  0  0  0  0  0  0  0  0  0  0
   -2.7616   -2.3482    7.0983 C   0  0  0  0  0  0  0  0  0  0  0  0
   -3.0610   -0.9810    6.9402 C   0  0  0  0  0  0  0  0  0  0  0  0
   -4.3213   -0.5820    6.4826 C   0  0  0  0  0  0  0  0  0  0  0  0
   -8.7574    0.4065    4.7576 H   0  0  0  0  0  0  0  0  0  0  0  0
   -1.2024   -1.9557    9.8899 C   0  0  0  0  0  0  0  0  0  0  0  0
   -1.2156   -0.5640   10.0073 C   0  0  0  0  0  0  0  0  0  0  0  0
   -1.5970   -0.0124   11.2167 C   0  0  0  0  0  0  0  0  0  0  0  0
   -1.9580   -0.7441   12.2918 N   0  0  0  0  0  0  0  0  0  0  0  0
   -1.9547   -2.0873   12.1445 C   0  0  0  0  0  0  0  0  0  0  0  0
   -1.5947   -2.7356   10.9758 C   0  0  0  0  0  0  0  0  0  0  0  0
    1.8615   -4.1299    6.8475 C   0  0  0  0  0  0  0  0  0  0  0  0
    1.7281   -5.6300    6.6051 C   0  0  0  0  0  0  0  0  0  0  0  0
    1.3688   -5.9143    5.2539 O   0  0  0  0  0  0  0  0  0  0  0  0
    0.6352   -5.3003    5.0265 H   0  0  0  0  0  0  0  0  0  0  0  0
  6  7  1  0  0  0
  7  8  1  0  0  0
  8  9  2  0  0  0
  9 10  1  0  0  0
  8 11  1  0  0  0
 11 12  2  0  0  0
  6 12  1  0  0  0
 12 13  1  0  0  0
 13 14  2  0  0  0
 14 15  1  0  0  0
 15 16  2  0  0  0
 11 16  1  0  0  0
 14  1  1  0  0  0
  1  2  2  0  0  0
  2  3  1  0  0  0
  3  4  1  0  0  0
  4  5  2  0  0  0
  1  5  1  0  0  0
  5 18  1  0  0  0
 18 19  2  0  0  0
 19 20  1  0  0  0
 20 21  2  0  0  0
 21 22  1  0  0  0
 22 23  2  0  0  0
 18 23  1  0  0  0
  3 24  1  0  0  0
 24 25  1  0  0  0
 25 26  1  0  0  0
 10 17  1  0  0  0
 26 27  1  0  0  0
M  END
> <minimizedAffinity>
-9.63210

$$$$
mol_11717001_10


 27 30  0  0  0  0  0  0  0  0999 V2000
   -2.1362   -3.1787    7.1789 C   0  0  0  0  0  0  0  0  0  0  0  0
   -3.1087   -3.5055    6.2616 C   0  0  0  0  0  0  0  0  0  0  0  0
   -4.1746   -2.7056    6.5537 N   0  0  0  0  0  0  0  0  0  0  0  0
   -3.9686   -1.8860    7.6072 N   0  0  0  0  0  0  0  0  0  0  0  0
   -2.7043   -2.1404    7.9776 C   0  0  0  0  0  0  0  0  0  0  0  0
    2.6696   -3.7661    5.8231 C   0  0  0  0  0  0  0  0  0  0  0  0
    3.6521   -4.8671    6.2455 C   0  0  0  0  0  0  0  0  0  0  0  0
    2.8708   -5.7555    7.1861 C   0  0  0  0  0  0  0  0  0  0  0  0
    3.2887   -6.8370    7.7643 N   0  0  0  0  0  0  0  0  0  0  0  0
    4.6132   -7.1028    7.3988 O   0  0  0  0  0  0  0  0  0  0  0  0
    1.5327   -5.2171    7.3674 C   0  0  0  0  0  0  0  0  0  0  0  0
    1.4234   -4.0733    6.5885 C   0  0  0  0  0  0  0  0  0  0  0  0
    0.2298   -3.3732    6.5581 C   0  0  0  0  0  0  0  0  0  0  0  0
   -0.8578   -3.8459    7.3133 C   0  0  0  0  0  0  0  0  0  0  0  0
   -0.7222   -4.9999    8.1094 C   0  0  0  0  0  0  0  0  0  0  0  0
    0.4886   -5.6998    8.1386 C   0  0  0  0  0  0  0  0  0  0  0  0
    4.8025   -7.9264    7.8850 H   0  0  0  0  0  0  0  0  0  0  0  0
   -2.0621   -1.4373    9.0813 C   0  0  0  0  0  0  0  0  0  0  0  0
   -1.6148   -2.1472   10.1979 C   0  0  0  0  0  0  0  0  0  0  0  0
   -1.1063   -1.4331   11.2674 C   0  0  0  0  0  0  0  0  0  0  0  0
   -1.0173   -0.0867   11.2932 N   0  0  0  0  0  0  0  0  0  0  0  0
   -1.4393    0.5738   10.1924 C   0  0  0  0  0  0  0  0  0  0  0  0
   -1.9589   -0.0478    9.0702 C   0  0  0  0  0  0  0  0  0  0  0  0
   -5.4699   -2.6970    5.8922 C   0  0  0  0  0  0  0  0  0  0  0  0
   -6.2338   -3.9942    6.1384 C   0  0  0  0  0  0  0  0  0  0  0  0
   -7.2139   -4.2271    5.1281 O   0  0  0  0  0  0  0  0  0  0  0  0
   -7.6921   -3.3769    5.0038 H   0  0  0  0  0  0  0  0  0  0  0  0
  6  7  1  0  0  0
  7  8  1  0  0  0
  8  9  2  0  0  0
  9 10  1  0  0  0
  8 11  1  0  0  0
 11 12  2  0  0  0
  6 12  1  0  0  0
 12 13  1  0  0  0
 13 14  2  0  0  0
 14 15  1  0  0  0
 15 16  2  0  0  0
 11 16  1  0  0  0
 14  1  1  0  0  0
  1  2  2  0  0  0
  2  3  1  0  0  0
  3  4  1  0  0  0
  4  5  2  0  0  0
  1  5  1  0  0  0
  5 18  1  0  0  0
 18 19  2  0  0  0
 19 20  1  0  0  0
 20 21  2  0  0  0
 21 22  1  0  0  0
 22 23  2  0  0  0
 18 23  1  0  0  0
  3 24  1  0  0  0
 24 25  1  0  0  0
 25 26  1  0  0  0
 10 17  1  0  0  0
 26 27  1  0  0  0
M  END
> <minimizedAffinity>
-9.61310

$$$$
mol_11717001_10


 27 30  0  0  0  0  0  0  0  0999 V2000
   -2.9630   -2.5260    6.6234 C   0  0  0  0  0  0  0  0  0  0  0  0
   -4.0380   -2.6639    5.7753 C   0  0  0  0  0  0  0  0  0  0  0  0
   -5.0330   -1.9021    6.3145 N   0  0  0  0  0  0  0  0  0  0  0  0
   -4.6847   -1.2845    7.4639 N   0  0  0  0  0  0  0  0  0  0  0  0
   -3.4009   -1.6300    7.6452 C   0  0  0  0  0  0  0  0  0  0  0  0
    0.4643   -5.7213    8.4462 C   0  0  0  0  0  0  0  0  0  0  0  0
    1.8599   -6.0408    7.8929 C   0  0  0  0  0  0  0  0  0  0  0  0
    1.9972   -5.1915    6.6502 C   0  0  0  0  0  0  0  0  0  0  0  0
    3.0306   -5.1085    5.8731 N   0  0  0  0  0  0  0  0  0  0  0  0
    4.0577   -5.9362    6.3403 O   0  0  0  0  0  0  0  0  0  0  0  0
    0.7676   -4.4484    6.4287 C   0  0  0  0  0  0  0  0  0  0  0  0
   -0.1106   -4.7594    7.4576 C   0  0  0  0  0  0  0  0  0  0  0  0
   -1.3583   -4.1618    7.5012 C   0  0  0  0  0  0  0  0  0  0  0  0
   -1.7072   -3.2370    6.5013 C   0  0  0  0  0  0  0  0  0  0  0  0
   -0.8078   -2.9464    5.4570 C   0  0  0  0  0  0  0  0  0  0  0  0
    0.4498   -3.5576    5.4170 C   0  0  0  0  0  0  0  0  0  0  0  0
    4.7642   -5.7815    5.6864 H   0  0  0  0  0  0  0  0  0  0  0  0
   -2.6189   -1.1463    8.7763 C   0  0  0  0  0  0  0  0  0  0  0  0
   -2.1437    0.1671    8.7883 C   0  0  0  0  0  0  0  0  0  0  0  0
   -1.3191    0.5558    9.8281 C   0  0  0  0  0  0  0  0  0  0  0  0
   -0.9471   -0.2635   10.8340 N   0  0  0  0  0  0  0  0  0  0  0  0
   -1.4366   -1.5228   10.8079 C   0  0  0  0  0  0  0  0  0  0  0  0
   -2.2714   -2.0068    9.8156 C   0  0  0  0  0  0  0  0  0  0  0  0
   -6.3881   -1.7468    5.8094 C   0  0  0  0  0  0  0  0  0  0  0  0
   -6.5695   -0.4134    5.0912 C   0  0  0  0  0  0  0  0  0  0  0  0
   -6.0489    0.6717    5.8574 O   0  0  0  0  0  0  0  0  0  0  0  0
   -6.3769    0.5457    6.7758 H   0  0  0  0  0  0  0  0  0  0  0  0
  6  7  1  0  0  0
  7  8  1  0  0  0
  8  9  2  0  0  0
  9 10  1  0  0  0
  8 11  1  0  0  0
 11 12  2  0  0  0
  6 12  1  0  0  0
 12 13  1  0  0  0
 13 14  2  0  0  0
 14 15  1  0  0  0
 15 16  2  0  0  0
 11 16  1  0  0  0
 14  1  1  0  0  0
  1  2  2  0  0  0
  2  3  1  0  0  0
  3  4  1  0  0  0
  4  5  2  0  0  0
  1  5  1  0  0  0
  5 18  1  0  0  0
 18 19  2  0  0  0
 19 20  1  0  0  0
 20 21  2  0  0  0
 21 22  1  0  0  0
 22 23  2  0  0  0
 18 23  1  0  0  0
  3 24  1  0  0  0
 24 25  1  0  0  0
 25 26  1  0  0  0
 10 17  1  0  0  0
 26 27  1  0  0  0
M  END
> <minimizedAffinity>
-9.22556

$$$$
mol_44587235_11


 32 36  0  0  0  0  0  0  0  0999 V2000
   -0.0503   -3.9565    7.5826 N   0  0  0  0  0  0  0  0  0  0  0  0
   -1.1731   -3.6686    6.8508 C   0  0  0  0  0  0  0  0  0  0  0  0
   -1.8633   -2.7154    7.5687 C   0  0  0  0  0  0  0  0  0  0  0  0
   -1.1043   -2.5284    8.7600 C   0  0  0  0  0  0  0  0  0  0  0  0
    0.0134   -3.2641    8.7371 N   0  0  0  0  0  0  0  0  0  0  0  0
   -3.0689   -2.0401    7.1294 C   0  0  0  0  0  0  0  0  0  0  0  0
   -4.1859   -2.8184    6.7749 C   0  0  0  0  0  0  0  0  0  0  0  0
   -5.3073   -2.1929    6.2549 C   0  0  0  0  0  0  0  0  0  0  0  0
   -5.3176   -0.8139    6.0982 C   0  0  0  0  0  0  0  0  0  0  0  0
   -4.2439   -0.0141    6.4525 C   0  0  0  0  0  0  0  0  0  0  0  0
   -3.1068   -0.6401    6.9771 C   0  0  0  0  0  0  0  0  0  0  0  0
   -6.5937   -0.4391    5.5097 C   0  0  0  0  0  0  0  0  0  0  0  0
   -6.9131    0.7813    5.2135 N   0  0  0  0  0  0  0  0  0  0  0  0
   -8.1984    0.8272    4.6611 O   0  0  0  0  0  0  0  0  0  0  0  0
   -7.4431   -1.6734    5.3119 C   0  0  0  0  0  0  0  0  0  0  0  0
   -6.5682   -2.8432    5.7842 C   0  0  0  0  0  0  0  0  0  0  0  0
   -8.3131    1.7781    4.4779 H   0  0  0  0  0  0  0  0  0  0  0  0
    3.2213   -5.4001    6.1421 C   0  0  0  0  0  0  0  0  0  0  0  0
    3.7351   -6.0579    7.4298 C   0  0  0  0  0  0  0  0  0  0  0  0
    2.5903   -6.7002    8.2020 C   0  0  0  0  0  0  0  0  0  0  0  0
    1.5041   -5.6822    8.5229 C   0  0  0  0  0  0  0  0  0  0  0  0
    0.9788   -4.9542    7.2659 C   0  0  0  0  0  0  0  0  0  0  0  0
    2.1451   -4.3479    6.4618 C   0  0  0  0  0  0  0  0  0  0  0  0
    4.4395   -3.3420    5.7357 C   0  0  0  0  0  0  0  0  0  0  0  0
    4.3401   -4.7654    5.4333 N   0  0  0  0  0  0  0  0  0  0  0  0
    4.2277   -4.8693    4.4243 H   0  0  0  0  0  0  0  0  0  0  0  0
   -1.4213   -1.6773    9.8990 C   0  0  0  0  0  0  0  0  0  0  0  0
   -1.9885   -2.2226   11.0492 C   0  0  0  0  0  0  0  0  0  0  0  0
   -2.2353   -1.3773   12.1164 C   0  0  0  0  0  0  0  0  0  0  0  0
   -1.9677   -0.0528   12.1061 N   0  0  0  0  0  0  0  0  0  0  0  0
   -1.4366    0.4519   10.9720 C   0  0  0  0  0  0  0  0  0  0  0  0
   -1.1448   -0.3099    9.8547 C   0  0  0  0  0  0  0  0  0  0  0  0
 24 25  1  0  0  0
 25 18  1  0  0  0
 18 19  1  0  0  0
 19 20  1  0  0  0
 20 21  1  0  0  0
 21 22  1  0  0  0
 22 23  1  0  0  0
 18 23  1  0  0  0
 22  1  1  0  0  0
  1  2  1  0  0  0
  2  3  2  0  0  0
  3  4  1  0  0  0
  4  5  2  0  0  0
  1  5  1  0  0  0
  4 27  1  0  0  0
 27 28  2  0  0  0
 28 29  1  0  0  0
 29 30  2  0  0  0
 30 31  1  0  0  0
 31 32  2  0  0  0
 27 32  1  0  0  0
  3  6  1  0  0  0
  6  7  2  0  0  0
  7  8  1  0  0  0
  8  9  2  0  0  0
  9 10  1  0  0  0
 10 11  2  0  0  0
  6 11  1  0  0  0
  9 12  1  0  0  0
 12 13  2  0  0  0
 13 14  1  0  0  0
 12 15  1  0  0  0
 15 16  1  0  0  0
  8 16  1  0  0  0
 25 26  1  0  0  0
 14 17  1  0  0  0
M  END
> <minimizedAffinity>
-10.53029

$$$$
mol_44587235_11


 32 36  0  0  0  0  0  0  0  0999 V2000
   -4.8422   -0.2008    6.4329 N   0  0  0  0  0  0  0  0  0  0  0  0
   -4.0254   -1.1636    5.8990 C   0  0  0  0  0  0  0  0  0  0  0  0
   -3.0686   -1.4267    6.8559 C   0  0  0  0  0  0  0  0  0  0  0  0
   -3.3549   -0.5263    7.9224 C   0  0  0  0  0  0  0  0  0  0  0  0
   -4.4572    0.1874    7.6647 N   0  0  0  0  0  0  0  0  0  0  0  0
   -2.0477   -2.4525    6.7658 C   0  0  0  0  0  0  0  0  0  0  0  0
   -1.4422   -2.9063    7.9518 C   0  0  0  0  0  0  0  0  0  0  0  0
   -0.3941   -3.8088    7.8725 C   0  0  0  0  0  0  0  0  0  0  0  0
    0.0380   -4.2569    6.6319 C   0  0  0  0  0  0  0  0  0  0  0  0
   -0.5454   -3.8460    5.4449 C   0  0  0  0  0  0  0  0  0  0  0  0
   -1.6041   -2.9329    5.5180 C   0  0  0  0  0  0  0  0  0  0  0  0
    1.1573   -5.1603    6.8465 C   0  0  0  0  0  0  0  0  0  0  0  0
    1.8056   -5.7363    5.8836 N   0  0  0  0  0  0  0  0  0  0  0  0
    2.8278   -6.5416    6.3991 O   0  0  0  0  0  0  0  0  0  0  0  0
    1.4196   -5.3000    8.3284 C   0  0  0  0  0  0  0  0  0  0  0  0
    0.4000   -4.3736    9.0059 C   0  0  0  0  0  0  0  0  0  0  0  0
    3.2362   -6.9035    5.5909 H   0  0  0  0  0  0  0  0  0  0  0  0
   -6.7280    2.1597    4.0383 C   0  0  0  0  0  0  0  0  0  0  0  0
   -7.6518    1.1096    3.4069 C   0  0  0  0  0  0  0  0  0  0  0  0
   -8.1396    0.1189    4.4557 C   0  0  0  0  0  0  0  0  0  0  0  0
   -6.9703   -0.5572    5.1592 C   0  0  0  0  0  0  0  0  0  0  0  0
   -5.9803    0.4547    5.7774 C   0  0  0  0  0  0  0  0  0  0  0  0
   -5.5276    1.4846    4.7245 C   0  0  0  0  0  0  0  0  0  0  0  0
   -5.8536    2.3801    1.7861 C   0  0  0  0  0  0  0  0  0  0  0  0
   -6.2510    3.0832    3.0007 N   0  0  0  0  0  0  0  0  0  0  0  0
   -5.4475    3.6142    3.3383 H   0  0  0  0  0  0  0  0  0  0  0  0
   -2.6085   -0.3372    9.1591 C   0  0  0  0  0  0  0  0  0  0  0  0
   -3.0093   -0.9800   10.3288 C   0  0  0  0  0  0  0  0  0  0  0  0
   -2.2440   -0.7967   11.4668 C   0  0  0  0  0  0  0  0  0  0  0  0
   -1.1364   -0.0240   11.5136 N   0  0  0  0  0  0  0  0  0  0  0  0
   -0.7825    0.6021   10.3709 C   0  0  0  0  0  0  0  0  0  0  0  0
   -1.4751    0.4770    9.1799 C   0  0  0  0  0  0  0  0  0  0  0  0
 24 25  1  0  0  0
 25 18  1  0  0  0
 18 19  1  0  0  0
 19 20  1  0  0  0
 20 21  1  0  0  0
 21 22  1  0  0  0
 22 23  1  0  0  0
 18 23  1  0  0  0
 22  1  1  0  0  0
  1  2  1  0  0  0
  2  3  2  0  0  0
  3  4  1  0  0  0
  4  5  2  0  0  0
  1  5  1  0  0  0
  4 27  1  0  0  0
 27 28  2  0  0  0
 28 29  1  0  0  0
 29 30  2  0  0  0
 30 31  1  0  0  0
 31 32  2  0  0  0
 27 32  1  0  0  0
  3  6  1  0  0  0
  6  7  2  0  0  0
  7  8  1  0  0  0
  8  9  2  0  0  0
  9 10  1  0  0  0
 10 11  2  0  0  0
  6 11  1  0  0  0
  9 12  1  0  0  0
 12 13  2  0  0  0
 13 14  1  0  0  0
 12 15  1  0  0  0
 15 16  1  0  0  0
  8 16  1  0  0  0
 25 26  1  0  0  0
 14 17  1  0  0  0
M  END
> <minimizedAffinity>
-10.24632

$$$$
mol_44587235_11


 32 36  0  0  0  0  0  0  0  0999 V2000
   -0.1616   -2.1414    9.8074 N   0  0  0  0  0  0  0  0  0  0  0  0
   -1.3263   -1.4781    9.5199 C   0  0  0  0  0  0  0  0  0  0  0  0
   -1.7301   -1.9335    8.2830 C   0  0  0  0  0  0  0  0  0  0  0  0
   -0.7081   -2.8362    7.8696 C   0  0  0  0  0  0  0  0  0  0  0  0
    0.2204   -2.9785    8.8227 N   0  0  0  0  0  0  0  0  0  0  0  0
   -2.9692   -1.5786    7.6186 C   0  0  0  0  0  0  0  0  0  0  0  0
   -3.8821   -2.6017    7.3043 C   0  0  0  0  0  0  0  0  0  0  0  0
   -5.0202   -2.2917    6.5778 C   0  0  0  0  0  0  0  0  0  0  0  0
   -5.2479   -0.9822    6.1779 C   0  0  0  0  0  0  0  0  0  0  0  0
   -4.3809    0.0535    6.4842 C   0  0  0  0  0  0  0  0  0  0  0  0
   -3.2280   -0.2534    7.2169 C   0  0  0  0  0  0  0  0  0  0  0  0
   -6.4853   -0.9553    5.4143 C   0  0  0  0  0  0  0  0  0  0  0  0
   -6.9702    0.1194    4.8769 N   0  0  0  0  0  0  0  0  0  0  0  0
   -8.1646   -0.1684    4.2062 O   0  0  0  0  0  0  0  0  0  0  0  0
   -7.0781   -2.3446    5.3599 C   0  0  0  0  0  0  0  0  0  0  0  0
   -6.0812   -3.2365    6.1132 C   0  0  0  0  0  0  0  0  0  0  0  0
   -8.4173    0.7021    3.8468 H   0  0  0  0  0  0  0  0  0  0  0  0
    2.8587   -0.9974   11.9127 C   0  0  0  0  0  0  0  0  0  0  0  0
    2.0722   -0.2946   13.0273 C   0  0  0  0  0  0  0  0  0  0  0  0
    0.8203   -1.0844   13.3855 C   0  0  0  0  0  0  0  0  0  0  0  0
   -0.0644   -1.2963   12.1642 C   0  0  0  0  0  0  0  0  0  0  0  0
    0.6882   -1.9617   10.9908 C   0  0  0  0  0  0  0  0  0  0  0  0
    1.9795   -1.1869   10.6642 C   0  0  0  0  0  0  0  0  0  0  0  0
    5.2098   -0.5920   12.3517 C   0  0  0  0  0  0  0  0  0  0  0  0
    4.0434   -0.2005   11.5685 N   0  0  0  0  0  0  0  0  0  0  0  0
    3.8666    0.7908   11.7346 H   0  0  0  0  0  0  0  0  0  0  0  0
   -0.6030   -3.5508    6.6045 C   0  0  0  0  0  0  0  0  0  0  0  0
    0.1095   -4.7459    6.5278 C   0  0  0  0  0  0  0  0  0  0  0  0
    0.1469   -5.4042    5.3114 C   0  0  0  0  0  0  0  0  0  0  0  0
   -0.4585   -4.9521    4.1911 N   0  0  0  0  0  0  0  0  0  0  0  0
   -1.1252   -3.7821    4.2896 C   0  0  0  0  0  0  0  0  0  0  0  0
   -1.2289   -3.0529    5.4605 C   0  0  0  0  0  0  0  0  0  0  0  0
 24 25  1  0  0  0
 25 18  1  0  0  0
 18 19  1  0  0  0
 19 20  1  0  0  0
 20 21  1  0  0  0
 21 22  1  0  0  0
 22 23  1  0  0  0
 18 23  1  0  0  0
 22  1  1  0  0  0
  1  2  1  0  0  0
  2  3  2  0  0  0
  3  4  1  0  0  0
  4  5  2  0  0  0
  1  5  1  0  0  0
  4 27  1  0  0  0
 27 28  2  0  0  0
 28 29  1  0  0  0
 29 30  2  0  0  0
 30 31  1  0  0  0
 31 32  2  0  0  0
 27 32  1  0  0  0
  3  6  1  0  0  0
  6  7  2  0  0  0
  7  8  1  0  0  0
  8  9  2  0  0  0
  9 10  1  0  0  0
 10 11  2  0  0  0
  6 11  1  0  0  0
  9 12  1  0  0  0
 12 13  2  0  0  0
 13 14  1  0  0  0
 12 15  1  0  0  0
 15 16  1  0  0  0
  8 16  1  0  0  0
 25 26  1  0  0  0
 14 17  1  0  0  0
M  END
> <minimizedAffinity>
-10.04962

$$$$
mol_60146017_12


 27 30  0  0  0  0  0  0  0  0999 V2000
   -2.5788   -2.2364    8.0618 C   0  0  0  0  0  0  0  0  0  0  0  0
   -3.3377   -1.9304    6.9383 C   0  0  0  0  0  0  0  0  0  0  0  0
   -3.8271   -0.6774    7.1119 N   0  0  0  0  0  0  0  0  0  0  0  0
   -3.5138   -0.1492    8.3014 N   0  0  0  0  0  0  0  0  0  0  0  0
   -2.7146   -1.0609    8.8826 C   0  0  0  0  0  0  0  0  0  0  0  0
   -2.0341   -4.4403    6.9528 C   0  0  0  0  0  0  0  0  0  0  0  0
   -1.8488   -3.5494    8.1921 C   0  0  0  0  0  0  0  0  0  0  0  0
   -0.3633   -3.3859    8.3054 C   0  0  0  0  0  0  0  0  0  0  0  0
    0.3459   -2.7979    9.3490 C   0  0  0  0  0  0  0  0  0  0  0  0
    1.7387   -2.7227    9.2625 C   0  0  0  0  0  0  0  0  0  0  0  0
    2.4151   -3.2644    8.1620 C   0  0  0  0  0  0  0  0  0  0  0  0
    1.7093   -3.9078    7.1440 C   0  0  0  0  0  0  0  0  0  0  0  0
    0.3272   -3.9687    7.2364 C   0  0  0  0  0  0  0  0  0  0  0  0
   -0.6555   -4.6096    6.3626 C   0  0  0  0  0  0  0  0  0  0  0  0
   -0.5293   -5.2776    5.2580 N   0  0  0  0  0  0  0  0  0  0  0  0
    0.7896   -5.3923    4.8284 O   0  0  0  0  0  0  0  0  0  0  0  0
    0.7014   -5.9535    4.0352 H   0  0  0  0  0  0  0  0  0  0  0  0
   -2.1660   -0.7479   10.1954 C   0  0  0  0  0  0  0  0  0  0  0  0
   -2.3850   -1.5861   11.2861 C   0  0  0  0  0  0  0  0  0  0  0  0
   -1.8710   -1.2026   12.5135 C   0  0  0  0  0  0  0  0  0  0  0  0
   -1.1478   -0.0779   12.7125 N   0  0  0  0  0  0  0  0  0  0  0  0
   -0.9173    0.6941   11.6294 C   0  0  0  0  0  0  0  0  0  0  0  0
   -1.3944    0.4044   10.3636 C   0  0  0  0  0  0  0  0  0  0  0  0
   -4.6082    0.1022    6.1658 C   0  0  0  0  0  0  0  0  0  0  0  0
   -5.8206   -0.6694    5.6577 C   0  0  0  0  0  0  0  0  0  0  0  0
   -6.9456    0.1857    5.4645 O   0  0  0  0  0  0  0  0  0  0  0  0
   -7.0073    0.7497    6.2678 H   0  0  0  0  0  0  0  0  0  0  0  0
  6  7  1  0  0  0
  7  8  1  0  0  0
  8  9  2  0  0  0
  9 10  1  0  0  0
 10 11  2  0  0  0
 11 12  1  0  0  0
 12 13  2  0  0  0
  8 13  1  0  0  0
 13 14  1  0  0  0
  6 14  1  0  0  0
 14 15  2  0  0  0
 15 16  1  0  0  0
  7  1  1  0  0  0
  1  2  2  0  0  0
  2  3  1  0  0  0
  3  4  1  0  0  0
  4  5  2  0  0  0
  1  5  1  0  0  0
  5 18  1  0  0  0
 18 19  2  0  0  0
 19 20  1  0  0  0
 20 21  2  0  0  0
 21 22  1  0  0  0
 22 23  2  0  0  0
 18 23  1  0  0  0
  3 24  1  0  0  0
 24 25  1  0  0  0
 25 26  1  0  0  0
 16 17  1  0  0  0
 26 27  1  0  0  0
M  END
> <minimizedAffinity>
-9.07483

$$$$
mol_60146017_12


 27 30  0  0  0  0  0  0  0  0999 V2000
   -1.8180   -2.0306    8.5430 C   0  0  0  0  0  0  0  0  0  0  0  0
   -1.0491   -1.4380    9.5377 C   0  0  0  0  0  0  0  0  0  0  0  0
   -1.6139   -0.2381    9.8221 N   0  0  0  0  0  0  0  0  0  0  0  0
   -2.6611    0.0503    9.0397 N   0  0  0  0  0  0  0  0  0  0  0  0
   -2.8356   -1.0458    8.2809 C   0  0  0  0  0  0  0  0  0  0  0  0
   -2.3546   -3.7577    6.7787 C   0  0  0  0  0  0  0  0  0  0  0  0
   -1.4983   -3.4026    8.0053 C   0  0  0  0  0  0  0  0  0  0  0  0
   -0.0878   -3.5262    7.5139 C   0  0  0  0  0  0  0  0  0  0  0  0
    1.0797   -3.4640    8.2695 C   0  0  0  0  0  0  0  0  0  0  0  0
    2.3120   -3.5838    7.6214 C   0  0  0  0  0  0  0  0  0  0  0  0
    2.3726   -3.8017    6.2390 C   0  0  0  0  0  0  0  0  0  0  0  0
    1.2012   -3.9244    5.4899 C   0  0  0  0  0  0  0  0  0  0  0  0
   -0.0154   -3.7953    6.1422 C   0  0  0  0  0  0  0  0  0  0  0  0
   -1.3822   -3.9230    5.6366 C   0  0  0  0  0  0  0  0  0  0  0  0
   -1.8496   -4.1691    4.4520 N   0  0  0  0  0  0  0  0  0  0  0  0
   -0.8581   -4.3313    3.4886 O   0  0  0  0  0  0  0  0  0  0  0  0
   -1.3766   -4.5550    2.6930 H   0  0  0  0  0  0  0  0  0  0  0  0
   -3.9479   -1.0532    7.3401 C   0  0  0  0  0  0  0  0  0  0  0  0
   -4.7140   -2.1991    7.1398 C   0  0  0  0  0  0  0  0  0  0  0  0
   -5.7272   -2.1463    6.1971 C   0  0  0  0  0  0  0  0  0  0  0  0
   -6.0347   -1.0434    5.4784 N   0  0  0  0  0  0  0  0  0  0  0  0
   -5.3016    0.0633    5.7230 C   0  0  0  0  0  0  0  0  0  0  0  0
   -4.2633    0.1111    6.6358 C   0  0  0  0  0  0  0  0  0  0  0  0
   -1.2101    0.7032   10.8536 C   0  0  0  0  0  0  0  0  0  0  0  0
    0.1843    1.2631   10.5978 C   0  0  0  0  0  0  0  0  0  0  0  0
    0.2548    2.6563   10.8951 O   0  0  0  0  0  0  0  0  0  0  0  0
   -0.5375    3.0688   10.4835 H   0  0  0  0  0  0  0  0  0  0  0  0
  6  7  1  0  0  0
  7  8  1  0  0  0
  8  9  2  0  0  0
  9 10  1  0  0  0
 10 11  2  0  0  0
 11 12  1  0  0  0
 12 13  2  0  0  0
  8 13  1  0  0  0
 13 14  1  0  0  0
  6 14  1  0  0  0
 14 15  2  0  0  0
 15 16  1  0  0  0
  7  1  1  0  0  0
  1  2  2  0  0  0
  2  3  1  0  0  0
  3  4  1  0  0  0
  4  5  2  0  0  0
  1  5  1  0  0  0
  5 18  1  0  0  0
 18 19  2  0  0  0
 19 20  1  0  0  0
 20 21  2  0  0  0
 21 22  1  0  0  0
 22 23  2  0  0  0
 18 23  1  0  0  0
  3 24  1  0  0  0
 24 25  1  0  0  0
 25 26  1  0  0  0
 16 17  1  0  0  0
 26 27  1  0  0  0
M  END
> <minimizedAffinity>
-9.06034

$$$$
mol_60146017_12


 27 30  0  0  0  0  0  0  0  0999 V2000
    0.6779   -2.3685    9.9407 C   0  0  0  0  0  0  0  0  0  0  0  0
    1.1090   -1.2964   10.7130 C   0  0  0  0  0  0  0  0  0  0  0  0
    2.4484   -1.1825   10.5320 N   0  0  0  0  0  0  0  0  0  0  0  0
    2.9589   -2.1449    9.7540 N   0  0  0  0  0  0  0  0  0  0  0  0
    1.8942   -2.8553    9.3427 C   0  0  0  0  0  0  0  0  0  0  0  0
   -1.6563   -1.8877   10.7797 C   0  0  0  0  0  0  0  0  0  0  0  0
   -0.7760   -2.7624    9.8719 C   0  0  0  0  0  0  0  0  0  0  0  0
   -1.3683   -2.5834    8.5068 C   0  0  0  0  0  0  0  0  0  0  0  0
   -1.0435   -3.2794    7.3458 C   0  0  0  0  0  0  0  0  0  0  0  0
   -1.6992   -2.9532    6.1557 C   0  0  0  0  0  0  0  0  0  0  0  0
   -2.6953   -1.9684    6.1371 C   0  0  0  0  0  0  0  0  0  0  0  0
   -3.0639   -1.3123    7.3126 C   0  0  0  0  0  0  0  0  0  0  0  0
   -2.4006   -1.6383    8.4857 C   0  0  0  0  0  0  0  0  0  0  0  0
   -2.6014   -1.1615    9.8540 C   0  0  0  0  0  0  0  0  0  0  0  0
   -3.4268   -0.2982   10.3597 N   0  0  0  0  0  0  0  0  0  0  0  0
   -4.2670    0.2834    9.4145 O   0  0  0  0  0  0  0  0  0  0  0  0
   -4.8380    0.8507    9.9658 H   0  0  0  0  0  0  0  0  0  0  0  0
    2.1280   -3.9669    8.4303 C   0  0  0  0  0  0  0  0  0  0  0  0
    2.0029   -5.2870    8.8567 C   0  0  0  0  0  0  0  0  0  0  0  0
    2.2840   -6.2926    7.9469 C   0  0  0  0  0  0  0  0  0  0  0  0
    2.6470   -6.0717    6.6637 N   0  0  0  0  0  0  0  0  0  0  0  0
    2.7206   -4.7832    6.2678 C   0  0  0  0  0  0  0  0  0  0  0  0
    2.4694   -3.7078    7.1008 C   0  0  0  0  0  0  0  0  0  0  0  0
    3.3259   -0.1560   11.0700 C   0  0  0  0  0  0  0  0  0  0  0  0
    4.5263   -0.7560   11.7927 C   0  0  0  0  0  0  0  0  0  0  0  0
    5.4792    0.2433   12.1497 O   0  0  0  0  0  0  0  0  0  0  0  0
    5.6006    0.8085   11.3540 H   0  0  0  0  0  0  0  0  0  0  0  0
  6  7  1  0  0  0
  7  8  1  0  0  0
  8  9  2  0  0  0
  9 10  1  0  0  0
 10 11  2  0  0  0
 11 12  1  0  0  0
 12 13  2  0  0  0
  8 13  1  0  0  0
 13 14  1  0  0  0
  6 14  1  0  0  0
 14 15  2  0  0  0
 15 16  1  0  0  0
  7  1  1  0  0  0
  1  2  2  0  0  0
  2  3  1  0  0  0
  3  4  1  0  0  0
  4  5  2  0  0  0
  1  5  1  0  0  0
  5 18  1  0  0  0
 18 19  2  0  0  0
 19 20  1  0  0  0
 20 21  2  0  0  0
 21 22  1  0  0  0
 22 23  2  0  0  0
 18 23  1  0  0  0
  3 24  1  0  0  0
 24 25  1  0  0  0
 25 26  1  0  0  0
 16 17  1  0  0  0
 26 27  1  0  0  0
M  END
> <minimizedAffinity>
-8.97901

$$$$
mol_11639637_13


 30 34  0  0  0  0  0  0  0  0999 V2000
   -3.6698   -1.6042    7.0147 N   0  0  0  0  0  0  0  0  0  0  0  0
   -2.6496   -2.4859    6.7695 C   0  0  0  0  0  0  0  0  0  0  0  0
   -1.8886   -2.5152    7.9163 C   0  0  0  0  0  0  0  0  0  0  0  0
   -2.4921   -1.5617    8.7863 C   0  0  0  0  0  0  0  0  0  0  0  0
   -3.5902   -1.0318    8.2316 N   0  0  0  0  0  0  0  0  0  0  0  0
   -0.7733   -3.4090    8.1521 C   0  0  0  0  0  0  0  0  0  0  0  0
    0.4572   -2.8586    8.5523 C   0  0  0  0  0  0  0  0  0  0  0  0
    1.5521   -3.6938    8.6995 C   0  0  0  0  0  0  0  0  0  0  0  0
    1.4199   -5.0540    8.4557 C   0  0  0  0  0  0  0  0  0  0  0  0
    0.2206   -5.6323    8.0747 C   0  0  0  0  0  0  0  0  0  0  0  0
   -0.8899   -4.7942    7.9250 C   0  0  0  0  0  0  0  0  0  0  0  0
    2.7197   -5.6739    8.6573 C   0  0  0  0  0  0  0  0  0  0  0  0
    2.9414   -6.9390    8.4867 N   0  0  0  0  0  0  0  0  0  0  0  0
    4.2830   -7.2375    8.7508 O   0  0  0  0  0  0  0  0  0  0  0  0
    3.7219   -4.6246    9.0804 C   0  0  0  0  0  0  0  0  0  0  0  0
    2.9426   -3.3020    9.0825 C   0  0  0  0  0  0  0  0  0  0  0  0
    4.3216   -8.1963    8.5768 H   0  0  0  0  0  0  0  0  0  0  0  0
   -8.5263    0.0808    4.5473 C   0  0  0  0  0  0  0  0  0  0  0  0
   -7.4191   -0.2709    5.4373 N   0  0  0  0  0  0  0  0  0  0  0  0
   -6.2444    0.5596    5.1484 C   0  0  0  0  0  0  0  0  0  0  0  0
   -5.1065    0.2501    6.1161 C   0  0  0  0  0  0  0  0  0  0  0  0
   -4.7405   -1.2424    6.0855 C   0  0  0  0  0  0  0  0  0  0  0  0
   -5.9999   -2.0868    6.3181 C   0  0  0  0  0  0  0  0  0  0  0  0
   -7.1069   -1.6993    5.3390 C   0  0  0  0  0  0  0  0  0  0  0  0
   -2.0442   -1.1653   10.1141 C   0  0  0  0  0  0  0  0  0  0  0  0
   -1.4010    0.0556   10.3064 C   0  0  0  0  0  0  0  0  0  0  0  0
   -1.0473    0.4075   11.5969 C   0  0  0  0  0  0  0  0  0  0  0  0
   -1.2796   -0.3666   12.6801 N   0  0  0  0  0  0  0  0  0  0  0  0
   -1.8860   -1.5529   12.4613 C   0  0  0  0  0  0  0  0  0  0  0  0
   -2.2866   -1.9919   11.2125 C   0  0  0  0  0  0  0  0  0  0  0  0
 18 19  1  0  0  0
 19 20  1  0  0  0
 20 21  1  0  0  0
 21 22  1  0  0  0
 22 23  1  0  0  0
 23 24  1  0  0  0
 19 24  1  0  0  0
 22  1  1  0  0  0
  1  2  1  0  0  0
  2  3  2  0  0  0
  3  4  1  0  0  0
  4  5  2  0  0  0
  1  5  1  0  0  0
  4 25  1  0  0  0
 25 26  2  0  0  0
 26 27  1  0  0  0
 27 28  2  0  0  0
 28 29  1  0  0  0
 29 30  2  0  0  0
 25 30  1  0  0  0
  3  6  1  0  0  0
  6  7  2  0  0  0
  7  8  1  0  0  0
  8  9  2  0  0  0
  9 10  1  0  0  0
 10 11  2  0  0  0
  6 11  1  0  0  0
  9 12  1  0  0  0
 12 13  2  0  0  0
 13 14  1  0  0  0
 12 15  1  0  0  0
 15 16  1  0  0  0
  8 16  1  0  0  0
 14 17  1  0  0  0
M  END
> <minimizedAffinity>
-10.12035

$$$$
mol_11639637_13


 30 34  0  0  0  0  0  0  0  0999 V2000
   -0.1748   -2.1420    9.8025 N   0  0  0  0  0  0  0  0  0  0  0  0
   -1.3379   -1.4851    9.4961 C   0  0  0  0  0  0  0  0  0  0  0  0
   -1.7182   -1.9443    8.2552 C   0  0  0  0  0  0  0  0  0  0  0  0
   -0.6811   -2.8361    7.8559 C   0  0  0  0  0  0  0  0  0  0  0  0
    0.2407   -2.9640    8.8194 N   0  0  0  0  0  0  0  0  0  0  0  0
   -2.9619   -1.6126    7.5907 C   0  0  0  0  0  0  0  0  0  0  0  0
   -3.8662   -2.6491    7.2989 C   0  0  0  0  0  0  0  0  0  0  0  0
   -5.0194   -2.3566    6.5899 C   0  0  0  0  0  0  0  0  0  0  0  0
   -5.2672   -1.0526    6.1834 C   0  0  0  0  0  0  0  0  0  0  0  0
   -4.4066   -0.0050    6.4658 C   0  0  0  0  0  0  0  0  0  0  0  0
   -3.2400   -0.2934    7.1826 C   0  0  0  0  0  0  0  0  0  0  0  0
   -6.5187   -1.0441    5.4430 C   0  0  0  0  0  0  0  0  0  0  0  0
   -7.0233    0.0217    4.9062 N   0  0  0  0  0  0  0  0  0  0  0  0
   -8.2266   -0.2826    4.2595 O   0  0  0  0  0  0  0  0  0  0  0  0
   -7.0986   -2.4395    5.4111 C   0  0  0  0  0  0  0  0  0  0  0  0
   -6.0813   -3.3148    6.1564 C   0  0  0  0  0  0  0  0  0  0  0  0
   -8.4914    0.5818    3.8939 H   0  0  0  0  0  0  0  0  0  0  0  0
    2.6219   -0.2007   14.3767 C   0  0  0  0  0  0  0  0  0  0  0  0
    1.8260   -0.4084   13.1662 N   0  0  0  0  0  0  0  0  0  0  0  0
    0.6728   -1.2697   13.4514 C   0  0  0  0  0  0  0  0  0  0  0  0
   -0.2025   -1.4366   12.2133 C   0  0  0  0  0  0  0  0  0  0  0  0
    0.6084   -1.9850   11.0283 C   0  0  0  0  0  0  0  0  0  0  0  0
    1.8455   -1.1071   10.8000 C   0  0  0  0  0  0  0  0  0  0  0  0
    2.6537   -0.9552   12.0876 C   0  0  0  0  0  0  0  0  0  0  0  0
   -0.5676   -3.5555    6.5948 C   0  0  0  0  0  0  0  0  0  0  0  0
    0.1460   -4.7502    6.5259 C   0  0  0  0  0  0  0  0  0  0  0  0
    0.1743   -5.4213    5.3163 C   0  0  0  0  0  0  0  0  0  0  0  0
   -0.4405   -4.9820    4.1957 N   0  0  0  0  0  0  0  0  0  0  0  0
   -1.1075   -3.8117    4.2867 C   0  0  0  0  0  0  0  0  0  0  0  0
   -1.2028   -3.0704    5.4504 C   0  0  0  0  0  0  0  0  0  0  0  0
 18 19  1  0  0  0
 19 20  1  0  0  0
 20 21  1  0  0  0
 21 22  1  0  0  0
 22 23  1  0  0  0
 23 24  1  0  0  0
 19 24  1  0  0  0
 22  1  1  0  0  0
  1  2  1  0  0  0
  2  3  2  0  0  0
  3  4  1  0  0  0
  4  5  2  0  0  0
  1  5  1  0  0  0
  4 25  1  0  0  0
 25 26  2  0  0  0
 26 27  1  0  0  0
 27 28  2  0  0  0
 28 29  1  0  0  0
 29 30  2  0  0  0
 25 30  1  0  0  0
  3  6  1  0  0  0
  6  7  2  0  0  0
  7  8  1  0  0  0
  8  9  2  0  0  0
  9 10  1  0  0  0
 10 11  2  0  0  0
  6 11  1  0  0  0
  9 12  1  0  0  0
 12 13  2  0  0  0
 13 14  1  0  0  0
 12 15  1  0  0  0
 15 16  1  0  0  0
  8 16  1  0  0  0
 14 17  1  0  0  0
M  END
> <minimizedAffinity>
-9.97151

$$$$
mol_11639637_13


 30 34  0  0  0  0  0  0  0  0999 V2000
    0.8511   -3.7458    8.1958 N   0  0  0  0  0  0  0  0  0  0  0  0
   -0.2835   -3.6641    7.4315 C   0  0  0  0  0  0  0  0  0  0  0  0
   -1.1181   -2.7842    8.0829 C   0  0  0  0  0  0  0  0  0  0  0  0
   -0.4253   -2.4308    9.2769 C   0  0  0  0  0  0  0  0  0  0  0  0
    0.7832   -3.0068    9.3201 N   0  0  0  0  0  0  0  0  0  0  0  0
   -2.3825   -2.3004    7.5676 C   0  0  0  0  0  0  0  0  0  0  0  0
   -3.3511   -3.2394    7.1709 C   0  0  0  0  0  0  0  0  0  0  0  0
   -4.5299   -2.7900    6.5993 C   0  0  0  0  0  0  0  0  0  0  0  0
   -4.7395   -1.4281    6.4308 C   0  0  0  0  0  0  0  0  0  0  0  0
   -3.8146   -0.4750    6.8232 C   0  0  0  0  0  0  0  0  0  0  0  0
   -2.6217   -0.9222    7.4022 C   0  0  0  0  0  0  0  0  0  0  0  0
   -6.0317   -1.2497    5.7883 C   0  0  0  0  0  0  0  0  0  0  0  0
   -6.5166   -0.0912    5.4697 N   0  0  0  0  0  0  0  0  0  0  0  0
   -7.7699   -0.2384    4.8645 O   0  0  0  0  0  0  0  0  0  0  0  0
   -6.6781   -2.5977    5.5661 C   0  0  0  0  0  0  0  0  0  0  0  0
   -5.6603   -3.6224    6.0866 C   0  0  0  0  0  0  0  0  0  0  0  0
   -8.0150    0.6842    4.6650 H   0  0  0  0  0  0  0  0  0  0  0  0
    4.7098   -7.9094    7.6584 C   0  0  0  0  0  0  0  0  0  0  0  0
    3.5437   -7.0610    7.9079 N   0  0  0  0  0  0  0  0  0  0  0  0
    3.0285   -6.5129    6.6480 C   0  0  0  0  0  0  0  0  0  0  0  0
    1.7712   -5.6832    6.8881 C   0  0  0  0  0  0  0  0  0  0  0  0
    2.0310   -4.5609    7.9056 C   0  0  0  0  0  0  0  0  0  0  0  0
    2.6364   -5.1542    9.1841 C   0  0  0  0  0  0  0  0  0  0  0  0
    3.8683   -5.9996    8.8648 C   0  0  0  0  0  0  0  0  0  0  0  0
   -0.8930   -1.5635   10.3493 C   0  0  0  0  0  0  0  0  0  0  0  0
   -1.5595   -2.0988   11.4495 C   0  0  0  0  0  0  0  0  0  0  0  0
   -1.9319   -1.2371   12.4660 C   0  0  0  0  0  0  0  0  0  0  0  0
   -1.6964    0.0936   12.4504 N   0  0  0  0  0  0  0  0  0  0  0  0
   -1.0671    0.5875   11.3629 C   0  0  0  0  0  0  0  0  0  0  0  0
   -0.6467   -0.1905   10.2994 C   0  0  0  0  0  0  0  0  0  0  0  0
 18 19  1  0  0  0
 19 20  1  0  0  0
 20 21  1  0  0  0
 21 22  1  0  0  0
 22 23  1  0  0  0
 23 24  1  0  0  0
 19 24  1  0  0  0
 22  1  1  0  0  0
  1  2  1  0  0  0
  2  3  2  0  0  0
  3  4  1  0  0  0
  4  5  2  0  0  0
  1  5  1  0  0  0
  4 25  1  0  0  0
 25 26  2  0  0  0
 26 27  1  0  0  0
 27 28  2  0  0  0
 28 29  1  0  0  0
 29 30  2  0  0  0
 25 30  1  0  0  0
  3  6  1  0  0  0
  6  7  2  0  0  0
  7  8  1  0  0  0
  8  9  2  0  0  0
  9 10  1  0  0  0
 10 11  2  0  0  0
  6 11  1  0  0  0
  9 12  1  0  0  0
 12 13  2  0  0  0
 13 14  1  0  0  0
 12 15  1  0  0  0
 15 16  1  0  0  0
  8 16  1  0  0  0
 14 17  1  0  0  0
M  END
> <minimizedAffinity>
-9.87229

$$$$
mol_74627710_14


 28 31  0  0  0  0  0  0  0  0999 V2000
   -1.9334   -3.2623    7.1509 C   0  0  0  0  0  0  0  0  0  0  0  0
   -2.8920   -3.5843    6.2166 C   0  0  0  0  0  0  0  0  0  0  0  0
   -3.9815   -2.8277    6.5230 N   0  0  0  0  0  0  0  0  0  0  0  0
   -3.8071   -2.0386    7.6018 N   0  0  0  0  0  0  0  0  0  0  0  0
   -2.5394   -2.2711    7.9844 C   0  0  0  0  0  0  0  0  0  0  0  0
    3.9960   -4.2915    6.8969 C   0  0  0  0  0  0  0  0  0  0  0  0
    2.9821   -3.5916    5.9809 C   0  0  0  0  0  0  0  0  0  0  0  0
    1.6952   -3.9659    6.6472 C   0  0  0  0  0  0  0  0  0  0  0  0
    1.8734   -5.0797    7.4792 C   0  0  0  0  0  0  0  0  0  0  0  0
    3.3045   -5.5548    7.4561 C   0  0  0  0  0  0  0  0  0  0  0  0
    0.8081   -5.6189    8.1809 C   0  0  0  0  0  0  0  0  0  0  0  0
   -0.4456   -5.0158    8.0528 C   0  0  0  0  0  0  0  0  0  0  0  0
   -0.6287   -3.8922    7.2212 C   0  0  0  0  0  0  0  0  0  0  0  0
    0.4515   -3.3705    6.4972 C   0  0  0  0  0  0  0  0  0  0  0  0
    3.5150   -6.6946    6.5536 N   0  0  0  0  0  0  0  0  0  0  0  0
    4.6037   -7.4730    7.1278 O   0  0  0  0  0  0  0  0  0  0  0  0
    2.7207   -7.3342    6.6460 H   0  0  0  0  0  0  0  0  0  0  0  0
    5.2175   -7.5482    6.3713 H   0  0  0  0  0  0  0  0  0  0  0  0
   -1.9543   -1.5556    9.1150 C   0  0  0  0  0  0  0  0  0  0  0  0
   -1.3829   -2.2524   10.1818 C   0  0  0  0  0  0  0  0  0  0  0  0
   -0.8605   -1.5256   11.2373 C   0  0  0  0  0  0  0  0  0  0  0  0
   -0.8693   -0.1773   11.2977 N   0  0  0  0  0  0  0  0  0  0  0  0
   -1.4152    0.4740   10.2480 C   0  0  0  0  0  0  0  0  0  0  0  0
   -1.9604   -0.1608    9.1455 C   0  0  0  0  0  0  0  0  0  0  0  0
   -5.2616   -2.8159    5.8333 C   0  0  0  0  0  0  0  0  0  0  0  0
   -6.0872   -4.0575    6.1547 C   0  0  0  0  0  0  0  0  0  0  0  0
   -7.1501   -4.2341    5.2191 O   0  0  0  0  0  0  0  0  0  0  0  0
   -7.5939   -3.3597    5.1426 H   0  0  0  0  0  0  0  0  0  0  0  0
  6  7  1  0  0  0
  7  8  1  0  0  0
  8  9  2  0  0  0
  9 10  1  0  0  0
  6 10  1  0  0  0
 10 15  1  0  0  0
 15 16  1  0  0  0
  9 11  1  0  0  0
 11 12  2  0  0  0
 12 13  1  0  0  0
 13 14  2  0  0  0
  8 14  1  0  0  0
 13  1  1  0  0  0
  1  2  2  0  0  0
  2  3  1  0  0  0
  3  4  1  0  0  0
  4  5  2  0  0  0
  1  5  1  0  0  0
  5 19  1  0  0  0
 19 20  2  0  0  0
 20 21  1  0  0  0
 21 22  2  0  0  0
 22 23  1  0  0  0
 23 24  2  0  0  0
 19 24  1  0  0  0
  3 25  1  0  0  0
 25 26  1  0  0  0
 26 27  1  0  0  0
 15 17  1  0  0  0
 16 18  1  0  0  0
 27 28  1  0  0  0
M  END
> <minimizedAffinity>
-9.44315

$$$$
mol_74627710_14


 28 31  0  0  0  0  0  0  0  0999 V2000
   -2.0925   -2.9964    6.8843 C   0  0  0  0  0  0  0  0  0  0  0  0
   -3.1028   -3.3140    6.0045 C   0  0  0  0  0  0  0  0  0  0  0  0
   -4.2146   -2.6792    6.4673 N   0  0  0  0  0  0  0  0  0  0  0  0
   -4.0056   -1.9751    7.5974 N   0  0  0  0  0  0  0  0  0  0  0  0
   -2.6953   -2.1346    7.8530 C   0  0  0  0  0  0  0  0  0  0  0  0
    2.8472   -6.3710    7.5868 C   0  0  0  0  0  0  0  0  0  0  0  0
    1.7723   -5.8211    8.5350 C   0  0  0  0  0  0  0  0  0  0  0  0
    1.0299   -4.9017    7.6163 C   0  0  0  0  0  0  0  0  0  0  0  0
    1.8131   -4.5780    6.4999 C   0  0  0  0  0  0  0  0  0  0  0  0
    3.1573   -5.2590    6.5601 C   0  0  0  0  0  0  0  0  0  0  0  0
    1.3369   -3.7179    5.5245 C   0  0  0  0  0  0  0  0  0  0  0  0
    0.0502   -3.1935    5.6713 C   0  0  0  0  0  0  0  0  0  0  0  0
   -0.7432   -3.5203    6.7898 C   0  0  0  0  0  0  0  0  0  0  0  0
   -0.2412   -4.3723    7.7825 C   0  0  0  0  0  0  0  0  0  0  0  0
    4.2221   -4.3810    7.0634 N   0  0  0  0  0  0  0  0  0  0  0  0
    4.6591   -3.5794    5.9289 O   0  0  0  0  0  0  0  0  0  0  0  0
    3.8011   -3.6764    7.6757 H   0  0  0  0  0  0  0  0  0  0  0  0
    5.6244   -3.7314    5.9356 H   0  0  0  0  0  0  0  0  0  0  0  0
   -2.0682   -1.4742    8.9945 C   0  0  0  0  0  0  0  0  0  0  0  0
   -1.9493   -0.0834    9.0373 C   0  0  0  0  0  0  0  0  0  0  0  0
   -1.3285    0.4899   10.1333 C   0  0  0  0  0  0  0  0  0  0  0  0
   -0.8293   -0.2174   11.1687 N   0  0  0  0  0  0  0  0  0  0  0  0
   -0.9684   -1.5596   11.1104 C   0  0  0  0  0  0  0  0  0  0  0  0
   -1.5754   -2.2271   10.0607 C   0  0  0  0  0  0  0  0  0  0  0  0
   -5.5477   -2.7132    5.8873 C   0  0  0  0  0  0  0  0  0  0  0  0
   -6.2317   -4.0558    6.1235 C   0  0  0  0  0  0  0  0  0  0  0  0
   -7.2275   -4.3153    5.1348 O   0  0  0  0  0  0  0  0  0  0  0  0
   -7.7688   -3.4966    5.0719 H   0  0  0  0  0  0  0  0  0  0  0  0
  6  7  1  0  0  0
  7  8  1  0  0  0
  8  9  2  0  0  0
  9 10  1  0  0  0
  6 10  1  0  0  0
 10 15  1  0  0  0
 15 16  1  0  0  0
  9 11  1  0  0  0
 11 12  2  0  0  0
 12 13  1  0  0  0
 13 14  2  0  0  0
  8 14  1  0  0  0
 13  1  1  0  0  0
  1  2  2  0  0  0
  2  3  1  0  0  0
  3  4  1  0  0  0
  4  5  2  0  0  0
  1  5  1  0  0  0
  5 19  1  0  0  0
 19 20  2  0  0  0
 20 21  1  0  0  0
 21 22  2  0  0  0
 22 23  1  0  0  0
 23 24  2  0  0  0
 19 24  1  0  0  0
  3 25  1  0  0  0
 25 26  1  0  0  0
 26 27  1  0  0  0
 15 17  1  0  0  0
 16 18  1  0  0  0
 27 28  1  0  0  0
M  END
> <minimizedAffinity>
-9.43643

$$$$
mol_74627710_14


 28 31  0  0  0  0  0  0  0  0999 V2000
   -2.4773   -2.6595    6.8536 C   0  0  0  0  0  0  0  0  0  0  0  0
   -3.5497   -2.8666    6.0154 C   0  0  0  0  0  0  0  0  0  0  0  0
   -4.5864   -2.1687    6.5553 N   0  0  0  0  0  0  0  0  0  0  0  0
   -4.2704   -1.5262    7.6973 N   0  0  0  0  0  0  0  0  0  0  0  0
   -2.9656   -1.7929    7.8808 C   0  0  0  0  0  0  0  0  0  0  0  0
    2.3822   -6.1610    7.4914 C   0  0  0  0  0  0  0  0  0  0  0  0
    1.4834   -5.3762    8.4574 C   0  0  0  0  0  0  0  0  0  0  0  0
    0.6463   -4.5962    7.4926 C   0  0  0  0  0  0  0  0  0  0  0  0
    1.2642   -4.5363    6.2359 C   0  0  0  0  0  0  0  0  0  0  0  0
    2.5757   -5.2807    6.2366 C   0  0  0  0  0  0  0  0  0  0  0  0
    0.6792   -3.8422    5.1900 C   0  0  0  0  0  0  0  0  0  0  0  0
   -0.5502   -3.2169    5.4124 C   0  0  0  0  0  0  0  0  0  0  0  0
   -1.1781   -3.2788    6.6731 C   0  0  0  0  0  0  0  0  0  0  0  0
   -0.5648   -3.9634    7.7306 C   0  0  0  0  0  0  0  0  0  0  0  0
    3.7361   -4.3962    6.4067 N   0  0  0  0  0  0  0  0  0  0  0  0
    4.5036   -4.4894    5.1726 O   0  0  0  0  0  0  0  0  0  0  0  0
    3.4115   -3.4252    6.3858 H   0  0  0  0  0  0  0  0  0  0  0  0
    5.3953   -4.7086    5.5067 H   0  0  0  0  0  0  0  0  0  0  0  0
   -2.2361   -1.2256    9.0115 C   0  0  0  0  0  0  0  0  0  0  0  0
   -1.9023   -2.0153   10.1139 C   0  0  0  0  0  0  0  0  0  0  0  0
   -1.2282   -1.4226   11.1672 C   0  0  0  0  0  0  0  0  0  0  0  0
   -0.8715   -0.1211   11.1932 N   0  0  0  0  0  0  0  0  0  0  0  0
   -1.1936    0.6184   10.1099 C   0  0  0  0  0  0  0  0  0  0  0  0
   -1.8634    0.1189    9.0065 C   0  0  0  0  0  0  0  0  0  0  0  0
   -5.9442   -2.0806    6.0425 C   0  0  0  0  0  0  0  0  0  0  0  0
   -6.1893   -0.7607    5.3183 C   0  0  0  0  0  0  0  0  0  0  0  0
   -5.6310    0.3394    6.0354 O   0  0  0  0  0  0  0  0  0  0  0  0
   -5.9239    0.2334    6.9684 H   0  0  0  0  0  0  0  0  0  0  0  0
  6  7  1  0  0  0
  7  8  1  0  0  0
  8  9  2  0  0  0
  9 10  1  0  0  0
  6 10  1  0  0  0
 10 15  1  0  0  0
 15 16  1  0  0  0
  9 11  1  0  0  0
 11 12  2  0  0  0
 12 13  1  0  0  0
 13 14  2  0  0  0
  8 14  1  0  0  0
 13  1  1  0  0  0
  1  2  2  0  0  0
  2  3  1  0  0  0
  3  4  1  0  0  0
  4  5  2  0  0  0
  1  5  1  0  0  0
  5 19  1  0  0  0
 19 20  2  0  0  0
 20 21  1  0  0  0
 21 22  2  0  0  0
 22 23  1  0  0  0
 23 24  2  0  0  0
 19 24  1  0  0  0
  3 25  1  0  0  0
 25 26  1  0  0  0
 26 27  1  0  0  0
 15 17  1  0  0  0
 16 18  1  0  0  0
 27 28  1  0  0  0
M  END
> <minimizedAffinity>
-9.15232

$$$$
mol_87623644_15


 30 34  0  0  0  0  0  0  0  0999 V2000
   -4.3988   -0.8647    7.2823 N   0  0  0  0  0  0  0  0  0  0  0  0
   -3.5014   -1.8361    6.9399 C   0  0  0  0  0  0  0  0  0  0  0  0
   -2.5092   -1.8022    7.8806 C   0  0  0  0  0  0  0  0  0  0  0  0
   -2.8849   -0.7520    8.7671 C   0  0  0  0  0  0  0  0  0  0  0  0
   -4.0737   -0.2254    8.4215 N   0  0  0  0  0  0  0  0  0  0  0  0
   -1.3711   -2.6918    7.8810 C   0  0  0  0  0  0  0  0  0  0  0  0
   -0.9518   -3.2629    6.6699 C   0  0  0  0  0  0  0  0  0  0  0  0
    0.1020   -4.1593    6.6878 C   0  0  0  0  0  0  0  0  0  0  0  0
    0.7239   -4.4725    7.8897 C   0  0  0  0  0  0  0  0  0  0  0  0
    0.3466   -3.9156    9.0986 C   0  0  0  0  0  0  0  0  0  0  0  0
   -0.7156   -3.0103    9.0884 C   0  0  0  0  0  0  0  0  0  0  0  0
    1.7609   -5.4513    7.6165 C   0  0  0  0  0  0  0  0  0  0  0  0
    2.5095   -5.9696    8.5388 N   0  0  0  0  0  0  0  0  0  0  0  0
    3.4067   -6.8852    7.9798 O   0  0  0  0  0  0  0  0  0  0  0  0
    1.8009   -5.7477    6.1359 C   0  0  0  0  0  0  0  0  0  0  0  0
    0.6822   -4.8931    5.5233 C   0  0  0  0  0  0  0  0  0  0  0  0
    3.8877   -7.2090    8.7639 H   0  0  0  0  0  0  0  0  0  0  0  0
   -8.9983    0.5573    4.5895 C   0  0  0  0  0  0  0  0  0  0  0  0
   -7.5551    0.0498    4.6061 C   0  0  0  0  0  0  0  0  0  0  0  0
   -7.4757   -1.2908    5.3643 C   0  0  0  0  0  0  0  0  0  0  0  0
   -6.0405   -1.6973    5.7110 C   0  0  0  0  0  0  0  0  0  0  0  0
   -5.4507   -0.5710    6.4096 N   0  0  0  0  0  0  0  0  0  0  0  0
   -5.2386    0.5739    5.5430 C   0  0  0  0  0  0  0  0  0  0  0  0
   -6.6275    1.1216    5.2098 C   0  0  0  0  0  0  0  0  0  0  0  0
   -2.0992   -0.2738    9.9002 C   0  0  0  0  0  0  0  0  0  0  0  0
   -2.3280   -0.7565   11.1858 C   0  0  0  0  0  0  0  0  0  0  0  0
   -1.4546   -0.3689   12.1891 C   0  0  0  0  0  0  0  0  0  0  0  0
   -0.4007    0.4565   11.9988 N   0  0  0  0  0  0  0  0  0  0  0  0
   -0.2172    0.9304   10.7494 C   0  0  0  0  0  0  0  0  0  0  0  0
   -1.0300    0.6008    9.6804 C   0  0  0  0  0  0  0  0  0  0  0  0
 18 19  1  0  0  0
 19 20  1  0  0  0
 20 21  1  0  0  0
 21 22  1  0  0  0
 22 23  1  0  0  0
 23 24  1  0  0  0
 19 24  1  0  0  0
 22  1  1  0  0  0
  1  2  1  0  0  0
  2  3  2  0  0  0
  3  4  1  0  0  0
  4  5  2  0  0  0
  1  5  1  0  0  0
  4 25  1  0  0  0
 25 26  2  0  0  0
 26 27  1  0  0  0
 27 28  2  0  0  0
 28 29  1  0  0  0
 29 30  2  0  0  0
 25 30  1  0  0  0
  3  6  1  0  0  0
  6  7  2  0  0  0
  7  8  1  0  0  0
  8  9  2  0  0  0
  9 10  1  0  0  0
 10 11  2  0  0  0
  6 11  1  0  0  0
  9 12  1  0  0  0
 12 13  2  0  0  0
 13 14  1  0  0  0
 12 15  1  0  0  0
 15 16  1  0  0  0
  8 16  1  0  0  0
 14 17  1  0  0  0
M  END
> <minimizedAffinity>
-10.74770

$$$$
mol_87623644_15


 30 34  0  0  0  0  0  0  0  0999 V2000
   -4.1991   -1.2753    7.5185 N   0  0  0  0  0  0  0  0  0  0  0  0
   -3.2371   -2.1684    7.1404 C   0  0  0  0  0  0  0  0  0  0  0  0
   -2.3276   -2.2200    8.1605 C   0  0  0  0  0  0  0  0  0  0  0  0
   -2.8181   -1.2998    9.1314 C   0  0  0  0  0  0  0  0  0  0  0  0
   -3.9955   -0.7720    8.7503 N   0  0  0  0  0  0  0  0  0  0  0  0
   -1.1574   -3.0669    8.1520 C   0  0  0  0  0  0  0  0  0  0  0  0
    0.0432   -2.5761    8.6872 C   0  0  0  0  0  0  0  0  0  0  0  0
    1.1736   -3.3713    8.6222 C   0  0  0  0  0  0  0  0  0  0  0  0
    1.1019   -4.6299    8.0391 C   0  0  0  0  0  0  0  0  0  0  0  0
   -0.0687   -5.1506    7.5169 C   0  0  0  0  0  0  0  0  0  0  0  0
   -1.2132   -4.3543    7.5790 C   0  0  0  0  0  0  0  0  0  0  0  0
    2.4281   -5.2195    8.0796 C   0  0  0  0  0  0  0  0  0  0  0  0
    2.7022   -6.3866    7.5874 N   0  0  0  0  0  0  0  0  0  0  0  0
    4.0576   -6.6827    7.7633 O   0  0  0  0  0  0  0  0  0  0  0  0
    3.3852   -4.2681    8.7583 C   0  0  0  0  0  0  0  0  0  0  0  0
    2.5453   -3.0307    9.1057 C   0  0  0  0  0  0  0  0  0  0  0  0
    4.1344   -7.5593    7.3430 H   0  0  0  0  0  0  0  0  0  0  0  0
   -8.5825    0.4164    4.6283 C   0  0  0  0  0  0  0  0  0  0  0  0
   -7.1596   -0.1405    4.7063 C   0  0  0  0  0  0  0  0  0  0  0  0
   -7.1681   -1.5140    5.4076 C   0  0  0  0  0  0  0  0  0  0  0  0
   -5.7697   -1.9837    5.8188 C   0  0  0  0  0  0  0  0  0  0  0  0
   -5.1873   -0.9090    6.6000 N   0  0  0  0  0  0  0  0  0  0  0  0
   -4.8877    0.2637    5.7988 C   0  0  0  0  0  0  0  0  0  0  0  0
   -6.2362    0.8723    5.4100 C   0  0  0  0  0  0  0  0  0  0  0  0
   -2.1484   -0.9411   10.3775 C   0  0  0  0  0  0  0  0  0  0  0  0
   -1.5089    0.2873   10.5197 C   0  0  0  0  0  0  0  0  0  0  0  0
   -1.0185    0.6222   11.7715 C   0  0  0  0  0  0  0  0  0  0  0  0
   -1.1136   -0.1742   12.8600 N   0  0  0  0  0  0  0  0  0  0  0  0
   -1.7146   -1.3694   12.6886 C   0  0  0  0  0  0  0  0  0  0  0  0
   -2.2395   -1.7944   11.4820 C   0  0  0  0  0  0  0  0  0  0  0  0
 18 19  1  0  0  0
 19 20  1  0  0  0
 20 21  1  0  0  0
 21 22  1  0  0  0
 22 23  1  0  0  0
 23 24  1  0  0  0
 19 24  1  0  0  0
 22  1  1  0  0  0
  1  2  1  0  0  0
  2  3  2  0  0  0
  3  4  1  0  0  0
  4  5  2  0  0  0
  1  5  1  0  0  0
  4 25  1  0  0  0
 25 26  2  0  0  0
 26 27  1  0  0  0
 27 28  2  0  0  0
 28 29  1  0  0  0
 29 30  2  0  0  0
 25 30  1  0  0  0
  3  6  1  0  0  0
  6  7  2  0  0  0
  7  8  1  0  0  0
  8  9  2  0  0  0
  9 10  1  0  0  0
 10 11  2  0  0  0
  6 11  1  0  0  0
  9 12  1  0  0  0
 12 13  2  0  0  0
 13 14  1  0  0  0
 12 15  1  0  0  0
 15 16  1  0  0  0
  8 16  1  0  0  0
 14 17  1  0  0  0
M  END
> <minimizedAffinity>
-10.67305

$$$$
mol_87623644_15


 30 34  0  0  0  0  0  0  0  0999 V2000
   -4.1239   -1.2742    7.5695 N   0  0  0  0  0  0  0  0  0  0  0  0
   -3.0909   -2.0569    7.1376 C   0  0  0  0  0  0  0  0  0  0  0  0
   -2.1808   -2.1025    8.1575 C   0  0  0  0  0  0  0  0  0  0  0  0
   -2.7464   -1.2942    9.1855 C   0  0  0  0  0  0  0  0  0  0  0  0
   -3.9633   -0.8407    8.8338 N   0  0  0  0  0  0  0  0  0  0  0  0
   -0.9445   -2.8472    8.0988 C   0  0  0  0  0  0  0  0  0  0  0  0
   -0.6899   -3.6591    6.9831 C   0  0  0  0  0  0  0  0  0  0  0  0
    0.4693   -4.4142    6.9616 C   0  0  0  0  0  0  0  0  0  0  0  0
    1.3545   -4.3539    8.0303 C   0  0  0  0  0  0  0  0  0  0  0  0
    1.1423   -3.5521    9.1376 C   0  0  0  0  0  0  0  0  0  0  0  0
   -0.0248   -2.7873    9.1663 C   0  0  0  0  0  0  0  0  0  0  0  0
    2.4528   -5.2628    7.7550 C   0  0  0  0  0  0  0  0  0  0  0  0
    3.4367   -5.4575    8.5757 N   0  0  0  0  0  0  0  0  0  0  0  0
    4.3339   -6.3909    8.0469 O   0  0  0  0  0  0  0  0  0  0  0  0
    2.2457   -5.9148    6.4083 C   0  0  0  0  0  0  0  0  0  0  0  0
    0.9133   -5.3552    5.8899 C   0  0  0  0  0  0  0  0  0  0  0  0
    5.0022   -6.4593    8.7537 H   0  0  0  0  0  0  0  0  0  0  0  0
   -8.6105    0.3000    4.7729 C   0  0  0  0  0  0  0  0  0  0  0  0
   -7.1660   -0.2018    4.8207 C   0  0  0  0  0  0  0  0  0  0  0  0
   -7.1107   -1.5881    5.4940 C   0  0  0  0  0  0  0  0  0  0  0  0
   -5.6893   -2.0103    5.8769 C   0  0  0  0  0  0  0  0  0  0  0  0
   -5.1385   -0.9290    6.6718 N   0  0  0  0  0  0  0  0  0  0  0  0
   -4.8964    0.2702    5.8907 C   0  0  0  0  0  0  0  0  0  0  0  0
   -6.2731    0.8326    5.5324 C   0  0  0  0  0  0  0  0  0  0  0  0
   -2.1094   -0.9670   10.4571 C   0  0  0  0  0  0  0  0  0  0  0  0
   -1.3689    0.2022   10.6081 C   0  0  0  0  0  0  0  0  0  0  0  0
   -0.9127    0.5217   11.8767 C   0  0  0  0  0  0  0  0  0  0  0  0
   -1.1333   -0.2364   12.9742 N   0  0  0  0  0  0  0  0  0  0  0  0
   -1.8311   -1.3768   12.7954 C   0  0  0  0  0  0  0  0  0  0  0  0
   -2.3320   -1.7819   11.5719 C   0  0  0  0  0  0  0  0  0  0  0  0
 18 19  1  0  0  0
 19 20  1  0  0  0
 20 21  1  0  0  0
 21 22  1  0  0  0
 22 23  1  0  0  0
 23 24  1  0  0  0
 19 24  1  0  0  0
 22  1  1  0  0  0
  1  2  1  0  0  0
  2  3  2  0  0  0
  3  4  1  0  0  0
  4  5  2  0  0  0
  1  5  1  0  0  0
  4 25  1  0  0  0
 25 26  2  0  0  0
 26 27  1  0  0  0
 27 28  2  0  0  0
 28 29  1  0  0  0
 29 30  2  0  0  0
 25 30  1  0  0  0
  3  6  1  0  0  0
  6  7  2  0  0  0
  7  8  1  0  0  0
  8  9  2  0  0  0
  9 10  1  0  0  0
 10 11  2  0  0  0
  6 11  1  0  0  0
  9 12  1  0  0  0
 12 13  2  0  0  0
 13 14  1  0  0  0
 12 15  1  0  0  0
 15 16  1  0  0  0
  8 16  1  0  0  0
 14 17  1  0  0  0
M  END
> <minimizedAffinity>
-10.40400

$$$$
