REMARK  7 active torsions:
REMARK  status: ('A' for Active; 'I' for Inactive)
REMARK    1  A    between atoms: C2_2  and  C3_3 
REMARK    2  A    between atoms: C3_3  and  S1_4 
REMARK    3  A    between atoms: S1_4  and  N1_7 
REMARK    4  A    between atoms: N1_7  and  C4_8 
REMARK    5  A    between atoms: C6_10  and  C10_15 
REMARK    6  A    between atoms: C10_15  and  C11_17 
REMARK    7  A    between atoms: C16_23  and  C18_26 
ROOT
ATOM      1  C10 UNK     1      -2.544  -0.622  -6.759  1.00  0.00     0.200 C 
ATOM      2  O3  UNK     1      -2.013   0.448  -7.002  1.00  0.00    -0.286 OA
ENDROOT
BRANCH   1   3
ATOM      3  C6  UNK     1      -2.736  -1.050  -5.339  1.00  0.00     0.094 A 
ATOM      4  C5  UNK     1      -4.005  -0.956  -4.735  1.00  0.00     0.160 A 
ATOM      5  C4  UNK     1      -4.178  -1.247  -3.368  1.00  0.00     0.082 A 
ATOM      6  F2  UNK     1      -5.063  -0.524  -5.458  1.00  0.00    -0.203 F 
ATOM      7  C9  UNK     1      -3.068  -1.676  -2.613  1.00  0.00     0.036 A 
ATOM      8  C8  UNK     1      -1.804  -1.795  -3.213  1.00  0.00     0.046 A 
ATOM      9  C7  UNK     1      -1.637  -1.470  -4.568  1.00  0.00     0.133 A 
ATOM     10  F1  UNK     1      -0.411  -1.574  -5.121  1.00  0.00    -0.205 F 
BRANCH   5  11
ATOM     11  N1  UNK     1      -5.436  -1.093  -2.792  1.00  0.00    -0.281 N 
ATOM     12  H8  UNK     1      -6.239  -0.958  -3.394  1.00  0.00     0.178 HD
BRANCH  11  13
ATOM     13  S1  UNK     1      -5.805  -0.548  -1.234  1.00  0.00     0.231 S 
ATOM     14  O1  UNK     1      -5.224  -1.483  -0.296  1.00  0.00    -0.206 OA
ATOM     15  O2  UNK     1      -7.232  -0.320  -1.268  1.00  0.00    -0.206 OA
BRANCH  13  16
ATOM     16  C3  UNK     1      -5.021   1.056  -0.986  1.00  0.00     0.163 C 
BRANCH  16  17
ATOM     17  C2  UNK     1      -5.326   1.600   0.423  1.00  0.00     0.012 C 
ATOM     18  C1  UNK     1      -4.688   2.985   0.654  1.00  0.00     0.006 C 
ENDBRANCH  16  17
ENDBRANCH  13  16
ENDBRANCH  11  13
ENDBRANCH   5  11
ENDBRANCH   1   3
BRANCH   1  19
ATOM     19  C11 UNK     1      -3.044  -1.540  -7.805  1.00  0.00     0.044 A 
ATOM     20  C12 UNK     1      -3.608  -2.788  -7.561  1.00  0.00     0.106 A 
ATOM     21  N2  UNK     1      -3.921  -3.295  -8.817  1.00  0.00    -0.349 N 
ATOM     22  C13 UNK     1      -3.597  -2.448  -9.838  1.00  0.00     0.138 A 
ATOM     23  H12 UNK     1      -4.349  -4.197  -8.971  1.00  0.00     0.167 HD
ATOM     24  C14 UNK     1      -3.034  -1.319  -9.222  1.00  0.00     0.026 A 
ATOM     25  N3  UNK     1      -3.763  -2.604 -11.113  1.00  0.00    -0.242 NA
ATOM     26  C15 UNK     1      -2.607  -0.247  -9.967  1.00  0.00     0.031 A 
ATOM     27  C16 UNK     1      -2.811  -0.433 -11.390  1.00  0.00     0.013 A 
ATOM     28  C17 UNK     1      -3.377  -1.615 -11.879  1.00  0.00     0.133 A 
BRANCH  27  29
ATOM     29  C18 UNK     1      -2.438   0.627 -12.301  1.00  0.00     0.090 A 
ATOM     30  N4  UNK     1      -1.907   1.742 -11.799  1.00  0.00    -0.173 NA
ATOM     31  N5  UNK     1      -1.687   2.525 -12.905  1.00  0.00    -0.285 N 
ATOM     32  C19 UNK     1      -2.100   1.836 -14.023  1.00  0.00     0.114 A 
ATOM     33  C21 UNK     1      -1.105   3.866 -12.817  1.00  0.00     0.179 C 
ATOM     34  C20 UNK     1      -2.573   0.639 -13.648  1.00  0.00     0.053 A 
ENDBRANCH  27  29
ENDBRANCH   1  19
TORSDOF 7
