mol_11531192_0


 30 34  0  0  0  0  0  0  0  0999 V2000
    3.3010   -3.2066  -21.9912 N   0  0  0  0  0  0  0  0  0  0  0  0
    1.9523   -2.8588  -21.9979 C   0  0  0  0  0  0  0  0  0  0  0  0
    1.4490   -1.9079  -21.0405 C   0  0  0  0  0  0  0  0  0  0  0  0
    2.3405   -1.3166  -20.0761 C   0  0  0  0  0  0  0  0  0  0  0  0
    4.1337   -2.6542  -21.0903 N   0  0  0  0  0  0  0  0  0  0  0  0
   -0.0228   -1.5284  -21.0478 C   0  0  0  0  0  0  0  0  0  0  0  0
   -1.0291   -2.5438  -20.8739 C   0  0  0  0  0  0  0  0  0  0  0  0
   -2.4237   -2.1841  -20.8808 C   0  0  0  0  0  0  0  0  0  0  0  0
   -3.4301   -3.1995  -20.7069 C   0  0  0  0  0  0  0  0  0  0  0  0
   -3.0419   -4.5746  -20.5261 C   0  0  0  0  0  0  0  0  0  0  0  0
   -0.4109   -0.1533  -21.2286 C   0  0  0  0  0  0  0  0  0  0  0  0
   -4.9020   -2.8200  -20.7142 C   0  0  0  0  0  0  0  0  0  0  0  0
   -5.2566   -1.5638  -20.8794 N   0  0  0  0  0  0  0  0  0  0  0  0
   -4.2992   -0.5979  -21.0448 O   0  0  0  0  0  0  0  0  0  0  0  0
   -5.9642   -3.8916  -20.5307 C   0  0  0  0  0  0  0  0  0  0  0  0
   -2.8333   -0.7329  -21.0716 C   0  0  0  0  0  0  0  0  0  0  0  0
   -4.5517    0.2968  -21.1624 H   0  0  0  0  0  0  0  0  0  0  0  0
    7.2366   -6.8796  -25.1553 C   0  0  0  0  0  0  0  0  0  0  0  0
    6.9702   -5.8622  -24.0579 C   0  0  0  0  0  0  0  0  0  0  0  0
    5.4926   -5.5060  -24.0451 C   0  0  0  0  0  0  0  0  0  0  0  0
    5.2262   -4.4886  -22.9477 C   0  0  0  0  0  0  0  0  0  0  0  0
    3.7972   -4.1442  -22.9352 N   0  0  0  0  0  0  0  0  0  0  0  0
    2.8818   -4.7702  -23.9001 C   0  0  0  0  0  0  0  0  0  0  0  0
    7.7911   -4.6097  -24.3181 C   0  0  0  0  0  0  0  0  0  0  0  0
    3.8123   -1.6962  -20.0688 C   0  0  0  0  0  0  0  0  0  0  0  0
    4.3045   -2.6525  -19.1110 C   0  0  0  0  0  0  0  0  0  0  0  0
    5.6991   -3.0121  -19.1040 C   0  0  0  0  0  0  0  0  0  0  0  0
    6.1752   -3.9369  -18.1777 N   0  0  0  0  0  0  0  0  0  0  0  0
    7.5239   -4.2847  -18.1710 C   0  0  0  0  0  0  0  0  0  0  0  0
    4.7145   -1.0995  -21.0196 C   0  0  0  0  0  0  0  0  0  0  0  0
 18 19  1  0  0  0
 19 20  1  0  0  0
 20 21  1  0  0  0
 21 22  1  0  0  0
 22 23  1  0  0  0
 23 24  1  0  0  0
 19 24  1  0  0  0
 22  1  1  0  0  0
  1  2  1  0  0  0
  2  3  2  0  0  0
  3  4  1  0  0  0
  4  5  2  0  0  0
  1  5  1  0  0  0
  4 25  1  0  0  0
 25 26  2  0  0  0
 26 27  1  0  0  0
 27 28  2  0  0  0
 28 29  1  0  0  0
 29 30  2  0  0  0
 25 30  1  0  0  0
  3  6  1  0  0  0
  6  7  2  0  0  0
  7  8  1  0  0  0
  8  9  2  0  0  0
  9 10  1  0  0  0
 10 11  2  0  0  0
  6 11  1  0  0  0
  9 12  1  0  0  0
 12 13  2  0  0  0
 13 14  1  0  0  0
 12 15  1  0  0  0
 15 16  1  0  0  0
  8 16  1  0  0  0
 14 17  1  0  0  0
M  END
> <minimizedAffinity>
-9.58299

$$$$
mol_11531192_0


 30 34  0  0  0  0  0  0  0  0999 V2000
    3.6908   -3.2061  -21.7112 N   0  0  0  0  0  0  0  0  0  0  0  0
    2.3668   -2.7834  -21.8026 C   0  0  0  0  0  0  0  0  0  0  0  0
    1.7999   -1.9618  -20.7644 C   0  0  0  0  0  0  0  0  0  0  0  0
    2.6021   -1.5773  -19.6317 C   0  0  0  0  0  0  0  0  0  0  0  0
    4.4401   -2.8469  -20.6530 N   0  0  0  0  0  0  0  0  0  0  0  0
    0.3550   -1.5004  -20.8642 C   0  0  0  0  0  0  0  0  0  0  0  0
   -0.7151   -2.4598  -20.7730 C   0  0  0  0  0  0  0  0  0  0  0  0
   -2.0842   -2.0226  -20.8675 C   0  0  0  0  0  0  0  0  0  0  0  0
   -3.1544   -2.9820  -20.7763 C   0  0  0  0  0  0  0  0  0  0  0  0
   -2.8556   -4.3786  -20.5906 C   0  0  0  0  0  0  0  0  0  0  0  0
    0.0563   -0.1038  -21.0498 C   0  0  0  0  0  0  0  0  0  0  0  0
   -4.5992   -2.5206  -20.8760 C   0  0  0  0  0  0  0  0  0  0  0  0
   -4.8722   -1.2448  -21.0456 N   0  0  0  0  0  0  0  0  0  0  0  0
   -3.8541   -0.3321  -21.1324 O   0  0  0  0  0  0  0  0  0  0  0  0
   -5.7288   -3.5331  -20.7797 C   0  0  0  0  0  0  0  0  0  0  0  0
   -2.3994   -0.5486  -21.0634 C   0  0  0  0  0  0  0  0  0  0  0  0
   -4.0484    0.5765  -21.2531 H   0  0  0  0  0  0  0  0  0  0  0  0
    4.1816   -7.3752  -26.3338 C   0  0  0  0  0  0  0  0  0  0  0  0
    3.3430   -6.6320  -25.3067 C   0  0  0  0  0  0  0  0  0  0  0  0
    4.2303   -5.6801  -24.5214 C   0  0  0  0  0  0  0  0  0  0  0  0
    3.3917   -4.9369  -23.4943 C   0  0  0  0  0  0  0  0  0  0  0  0
    4.2497   -4.0162  -22.7348 N   0  0  0  0  0  0  0  0  0  0  0  0
    5.6865   -3.9342  -23.0347 C   0  0  0  0  0  0  0  0  0  0  0  0
    2.7046   -7.6309  -24.3554 C   0  0  0  0  0  0  0  0  0  0  0  0
    4.0469   -2.0387  -19.5320 C   0  0  0  0  0  0  0  0  0  0  0  0
    5.0675   -1.3824  -20.3078 C   0  0  0  0  0  0  0  0  0  0  0  0
    6.4365   -1.8194  -20.2134 C   0  0  0  0  0  0  0  0  0  0  0  0
    7.4236   -1.1847  -20.9636 N   0  0  0  0  0  0  0  0  0  0  0  0
    8.7475   -1.6075  -20.8723 C   0  0  0  0  0  0  0  0  0  0  0  0
    4.3952   -3.1321  -18.6619 C   0  0  0  0  0  0  0  0  0  0  0  0
 18 19  1  0  0  0
 19 20  1  0  0  0
 20 21  1  0  0  0
 21 22  1  0  0  0
 22 23  1  0  0  0
 23 24  1  0  0  0
 19 24  1  0  0  0
 22  1  1  0  0  0
  1  2  1  0  0  0
  2  3  2  0  0  0
  3  4  1  0  0  0
  4  5  2  0  0  0
  1  5  1  0  0  0
  4 25  1  0  0  0
 25 26  2  0  0  0
 26 27  1  0  0  0
 27 28  2  0  0  0
 28 29  1  0  0  0
 29 30  2  0  0  0
 25 30  1  0  0  0
  3  6  1  0  0  0
  6  7  2  0  0  0
  7  8  1  0  0  0
  8  9  2  0  0  0
  9 10  1  0  0  0
 10 11  2  0  0  0
  6 11  1  0  0  0
  9 12  1  0  0  0
 12 13  2  0  0  0
 13 14  1  0  0  0
 12 15  1  0  0  0
 15 16  1  0  0  0
  8 16  1  0  0  0
 14 17  1  0  0  0
M  END
> <minimizedAffinity>
-9.34852

$$$$
mol_11531192_0


 30 34  0  0  0  0  0  0  0  0999 V2000
    4.8278   -5.9137  -24.7286 N   0  0  0  0  0  0  0  0  0  0  0  0
    3.9313   -5.1585  -23.9762 C   0  0  0  0  0  0  0  0  0  0  0  0
    4.4183   -4.1194  -23.1059 C   0  0  0  0  0  0  0  0  0  0  0  0
    5.8322   -3.8614  -23.0136 C   0  0  0  0  0  0  0  0  0  0  0  0
    6.1486   -5.6726  -24.6424 N   0  0  0  0  0  0  0  0  0  0  0  0
    3.4401   -3.2952  -22.2849 C   0  0  0  0  0  0  0  0  0  0  0  0
    2.0309   -3.5876  -22.3372 C   0  0  0  0  0  0  0  0  0  0  0  0
    1.1040   -2.8065  -21.5592 C   0  0  0  0  0  0  0  0  0  0  0  0
   -0.3052   -3.0989  -21.6115 C   0  0  0  0  0  0  0  0  0  0  0  0
   -0.7876   -4.1723  -22.4419 C   0  0  0  0  0  0  0  0  0  0  0  0
    3.9225   -2.2219  -21.4546 C   0  0  0  0  0  0  0  0  0  0  0  0
   -1.2834   -2.2747  -20.7904 C   0  0  0  0  0  0  0  0  0  0  0  0
   -0.8427   -1.2941  -20.0320 N   0  0  0  0  0  0  0  0  0  0  0  0
    0.4979   -1.0160  -19.9822 O   0  0  0  0  0  0  0  0  0  0  0  0
   -2.7707   -2.5832  -20.8456 C   0  0  0  0  0  0  0  0  0  0  0  0
    1.6133   -1.6738  -20.6830 C   0  0  0  0  0  0  0  0  0  0  0  0
    0.8118   -0.3178  -19.4420 H   0  0  0  0  0  0  0  0  0  0  0  0
    4.7415  -10.7844  -28.6351 C   0  0  0  0  0  0  0  0  0  0  0  0
    5.5076   -9.7897  -27.7782 C   0  0  0  0  0  0  0  0  0  0  0  0
    4.5284   -8.8458  -27.0997 C   0  0  0  0  0  0  0  0  0  0  0  0
    5.2946   -7.8511  -26.2429 C   0  0  0  0  0  0  0  0  0  0  0  0
    4.3476   -6.9382  -25.5867 N   0  0  0  0  0  0  0  0  0  0  0  0
    2.9036   -7.0857  -25.8188 C   0  0  0  0  0  0  0  0  0  0  0  0
    6.4566   -8.9903  -28.6561 C   0  0  0  0  0  0  0  0  0  0  0  0
    6.8104   -4.6856  -23.8346 C   0  0  0  0  0  0  0  0  0  0  0  0
    7.3311   -5.9205  -23.3075 C   0  0  0  0  0  0  0  0  0  0  0  0
    8.2580   -6.7016  -24.0854 C   0  0  0  0  0  0  0  0  0  0  0  0
    8.7617   -7.8959  -23.5756 N   0  0  0  0  0  0  0  0  0  0  0  0
    9.6580   -8.6512  -24.3280 C   0  0  0  0  0  0  0  0  0  0  0  0
    7.2166   -4.2316  -25.1396 C   0  0  0  0  0  0  0  0  0  0  0  0
 18 19  1  0  0  0
 19 20  1  0  0  0
 20 21  1  0  0  0
 21 22  1  0  0  0
 22 23  1  0  0  0
 23 24  1  0  0  0
 19 24  1  0  0  0
 22  1  1  0  0  0
  1  2  1  0  0  0
  2  3  2  0  0  0
  3  4  1  0  0  0
  4  5  2  0  0  0
  1  5  1  0  0  0
  4 25  1  0  0  0
 25 26  2  0  0  0
 26 27  1  0  0  0
 27 28  2  0  0  0
 28 29  1  0  0  0
 29 30  2  0  0  0
 25 30  1  0  0  0
  3  6  1  0  0  0
  6  7  2  0  0  0
  7  8  1  0  0  0
  8  9  2  0  0  0
  9 10  1  0  0  0
 10 11  2  0  0  0
  6 11  1  0  0  0
  9 12  1  0  0  0
 12 13  2  0  0  0
 13 14  1  0  0  0
 12 15  1  0  0  0
 15 16  1  0  0  0
  8 16  1  0  0  0
 14 17  1  0  0  0
M  END
> <minimizedAffinity>
-8.95172

$$$$
mol_11531192_0


 30 34  0  0  0  0  0  0  0  0999 V2000
    4.5193   -3.4027  -23.1887 N   0  0  0  0  0  0  0  0  0  0  0  0
    3.1516   -3.6404  -23.0744 C   0  0  0  0  0  0  0  0  0  0  0  0
    2.4589   -3.2911  -21.8611 C   0  0  0  0  0  0  0  0  0  0  0  0
    3.1804   -2.6961  -20.7657 C   0  0  0  0  0  0  0  0  0  0  0  0
    5.1933   -2.8468  -22.1654 N   0  0  0  0  0  0  0  0  0  0  0  0
    0.9664   -3.5505  -21.7364 C   0  0  0  0  0  0  0  0  0  0  0  0
    0.0691   -2.4639  -21.4394 C   0  0  0  0  0  0  0  0  0  0  0  0
   -1.3451   -2.7097  -21.3212 C   0  0  0  0  0  0  0  0  0  0  0  0
   -2.2425   -1.6232  -21.0242 C   0  0  0  0  0  0  0  0  0  0  0  0
   -1.7257   -0.2908  -20.8454 C   0  0  0  0  0  0  0  0  0  0  0  0
    0.4497   -4.8828  -21.9152 C   0  0  0  0  0  0  0  0  0  0  0  0
   -3.7350   -1.8825  -20.8995 C   0  0  0  0  0  0  0  0  0  0  0  0
   -4.2071   -3.0996  -21.0629 N   0  0  0  0  0  0  0  0  0  0  0  0
   -3.3534   -4.1333  -21.3454 O   0  0  0  0  0  0  0  0  0  0  0  0
   -4.6822   -0.7358  -20.5861 C   0  0  0  0  0  0  0  0  0  0  0  0
   -1.8904   -4.1159  -21.5100 C   0  0  0  0  0  0  0  0  0  0  0  0
   -3.6896   -5.0001  -21.4618 H   0  0  0  0  0  0  0  0  0  0  0  0
    8.9164   -5.5499  -27.0675 C   0  0  0  0  0  0  0  0  0  0  0  0
    8.4102   -5.2853  -25.6589 C   0  0  0  0  0  0  0  0  0  0  0  0
    7.0368   -4.6379  -25.7274 C   0  0  0  0  0  0  0  0  0  0  0  0
    6.5306   -4.3732  -24.3188 C   0  0  0  0  0  0  0  0  0  0  0  0
    5.2023   -3.7471  -24.3850 N   0  0  0  0  0  0  0  0  0  0  0  0
    4.5810   -3.4773  -25.6897 C   0  0  0  0  0  0  0  0  0  0  0  0
    9.3739   -4.3546  -24.9409 C   0  0  0  0  0  0  0  0  0  0  0  0
    4.6729   -2.4368  -20.8904 C   0  0  0  0  0  0  0  0  0  0  0  0
    5.6093   -3.5142  -20.6996 C   0  0  0  0  0  0  0  0  0  0  0  0
    7.0235   -3.2685  -20.8177 C   0  0  0  0  0  0  0  0  0  0  0  0
    7.9292   -4.3105  -20.6330 N   0  0  0  0  0  0  0  0  0  0  0  0
    9.2968   -4.0728  -20.7473 C   0  0  0  0  0  0  0  0  0  0  0  0
    5.1505   -1.1137  -21.1994 C   0  0  0  0  0  0  0  0  0  0  0  0
 18 19  1  0  0  0
 19 20  1  0  0  0
 20 21  1  0  0  0
 21 22  1  0  0  0
 22 23  1  0  0  0
 23 24  1  0  0  0
 19 24  1  0  0  0
 22  1  1  0  0  0
  1  2  1  0  0  0
  2  3  2  0  0  0
  3  4  1  0  0  0
  4  5  2  0  0  0
  1  5  1  0  0  0
  4 25  1  0  0  0
 25 26  2  0  0  0
 26 27  1  0  0  0
 27 28  2  0  0  0
 28 29  1  0  0  0
 29 30  2  0  0  0
 25 30  1  0  0  0
  3  6  1  0  0  0
  6  7  2  0  0  0
  7  8  1  0  0  0
  8  9  2  0  0  0
  9 10  1  0  0  0
 10 11  2  0  0  0
  6 11  1  0  0  0
  9 12  1  0  0  0
 12 13  2  0  0  0
 13 14  1  0  0  0
 12 15  1  0  0  0
 15 16  1  0  0  0
  8 16  1  0  0  0
 14 17  1  0  0  0
M  END
> <minimizedAffinity>
-8.78368

$$$$
mol_11531192_0


 30 34  0  0  0  0  0  0  0  0999 V2000
    6.3069   -6.7651  -25.1948 N   0  0  0  0  0  0  0  0  0  0  0  0
    6.5446   -6.0281  -24.0370 C   0  0  0  0  0  0  0  0  0  0  0  0
    5.7612   -4.8522  -23.7584 C   0  0  0  0  0  0  0  0  0  0  0  0
    4.7321   -4.4382  -24.6770 C   0  0  0  0  0  0  0  0  0  0  0  0
    5.3455   -6.3784  -26.0529 N   0  0  0  0  0  0  0  0  0  0  0  0
    6.0205   -4.0480  -22.4949 C   0  0  0  0  0  0  0  0  0  0  0  0
    4.9147   -3.5329  -21.7295 C   0  0  0  0  0  0  0  0  0  0  0  0
    5.1604   -2.7708  -20.5324 C   0  0  0  0  0  0  0  0  0  0  0  0
    4.0546   -2.2558  -19.7669 C   0  0  0  0  0  0  0  0  0  0  0  0
    2.7029   -2.5028  -20.1986 C   0  0  0  0  0  0  0  0  0  0  0  0
    7.3721   -3.8011  -22.0633 C   0  0  0  0  0  0  0  0  0  0  0  0
    4.3139   -1.4516  -18.5034 C   0  0  0  0  0  0  0  0  0  0  0  0
    5.5486   -1.2259  -18.1091 N   0  0  0  0  0  0  0  0  0  0  0  0
    6.6006   -1.7159  -18.8373 O   0  0  0  0  0  0  0  0  0  0  0  0
    3.1468   -0.9079  -17.6955 C   0  0  0  0  0  0  0  0  0  0  0  0
    6.5869   -2.5103  -20.0768 C   0  0  0  0  0  0  0  0  0  0  0  0
    7.4800   -1.5553  -18.5564 H   0  0  0  0  0  0  0  0  0  0  0  0
    8.5741  -11.7905  -28.1266 C   0  0  0  0  0  0  0  0  0  0  0  0
    7.6323  -10.5983  -28.0819 C   0  0  0  0  0  0  0  0  0  0  0  0
    7.8300   -9.8452  -26.7766 C   0  0  0  0  0  0  0  0  0  0  0  0
    6.8882   -8.6529  -26.7319 C   0  0  0  0  0  0  0  0  0  0  0  0
    7.0794   -7.9245  -25.4695 N   0  0  0  0  0  0  0  0  0  0  0  0
    8.0701   -8.3964  -24.4914 C   0  0  0  0  0  0  0  0  0  0  0  0
    6.1951  -11.0843  -28.1739 C   0  0  0  0  0  0  0  0  0  0  0  0
    4.4728   -5.2425  -25.9405 C   0  0  0  0  0  0  0  0  0  0  0  0
    3.5804   -6.3722  -25.9044 C   0  0  0  0  0  0  0  0  0  0  0  0
    3.3346   -7.1343  -27.1015 C   0  0  0  0  0  0  0  0  0  0  0  0
    2.4716   -8.2270  -27.0666 N   0  0  0  0  0  0  0  0  0  0  0  0
    2.2340   -8.9639  -28.2244 C   0  0  0  0  0  0  0  0  0  0  0  0
    5.1195   -4.8747  -27.1735 C   0  0  0  0  0  0  0  0  0  0  0  0
 18 19  1  0  0  0
 19 20  1  0  0  0
 20 21  1  0  0  0
 21 22  1  0  0  0
 22 23  1  0  0  0
 23 24  1  0  0  0
 19 24  1  0  0  0
 22  1  1  0  0  0
  1  2  1  0  0  0
  2  3  2  0  0  0
  3  4  1  0  0  0
  4  5  2  0  0  0
  1  5  1  0  0  0
  4 25  1  0  0  0
 25 26  2  0  0  0
 26 27  1  0  0  0
 27 28  2  0  0  0
 28 29  1  0  0  0
 29 30  2  0  0  0
 25 30  1  0  0  0
  3  6  1  0  0  0
  6  7  2  0  0  0
  7  8  1  0  0  0
  8  9  2  0  0  0
  9 10  1  0  0  0
 10 11  2  0  0  0
  6 11  1  0  0  0
  9 12  1  0  0  0
 12 13  2  0  0  0
 13 14  1  0  0  0
 12 15  1  0  0  0
 15 16  1  0  0  0
  8 16  1  0  0  0
 14 17  1  0  0  0
M  END
> <minimizedAffinity>
-8.50470

$$$$
mol_11653652_1


 30 34  0  0  0  0  0  0  0  0999 V2000
    6.2846   -5.2656  -23.5016 N   0  0  0  0  0  0  0  0  0  0  0  0
    2.2495   -4.2893  -24.2946 C   0  0  0  0  0  0  0  0  0  0  0  0
    3.6301   -4.5948  -24.0209 C   0  0  0  0  0  0  0  0  0  0  0  0
    4.0821   -5.9622  -24.0377 C   0  0  0  0  0  0  0  0  0  0  0  0
    5.4171   -6.2576  -23.7731 N   0  0  0  0  0  0  0  0  0  0  0  0
    4.6101   -3.4741  -23.7142 C   0  0  0  0  0  0  0  0  0  0  0  0
    2.3357   -2.4573  -19.1580 C   0  0  0  0  0  0  0  0  0  0  0  0
    2.6056   -1.7609  -17.9266 C   0  0  0  0  0  0  0  0  0  0  0  0
    3.9345   -2.9216  -20.0051 C   0  0  0  0  0  0  0  0  0  0  0  0
    3.8501   -3.4597  -21.3383 C   0  0  0  0  0  0  0  0  0  0  0  0
    4.6943   -2.9360  -22.3810 C   0  0  0  0  0  0  0  0  0  0  0  0
    4.9144   -1.8008  -19.6985 C   0  0  0  0  0  0  0  0  0  0  0  0
    5.6856   -1.3224  -20.6510 N   0  0  0  0  0  0  0  0  0  0  0  0
    5.6054   -1.8343  -21.9191 O   0  0  0  0  0  0  0  0  0  0  0  0
    5.0034   -1.2328  -18.2913 C   0  0  0  0  0  0  0  0  0  0  0  0
    3.6537   -0.6607  -17.8896 C   0  0  0  0  0  0  0  0  0  0  0  0
    6.1916   -1.4706  -22.6431 H   0  0  0  0  0  0  0  0  0  0  0  0
    7.0434   -3.9619  -26.2622 C   0  0  0  0  0  0  0  0  0  0  0  0
    7.0518   -5.4675  -26.0530 C   0  0  0  0  0  0  0  0  0  0  0  0
    7.5858   -5.3915  -20.7973 C   0  0  0  0  0  0  0  0  0  0  0  0
    8.0147   -6.2440  -21.9803 C   0  0  0  0  0  0  0  0  0  0  0  0
    7.6459   -5.5668  -23.2318 N   0  0  0  0  0  0  0  0  0  0  0  0
    8.6862   -5.2013  -24.2039 C   0  0  0  0  0  0  0  0  0  0  0  0
    8.4111   -5.8982  -25.5264 C   0  0  0  0  0  0  0  0  0  0  0  0
    3.1020   -7.0828  -24.3445 C   0  0  0  0  0  0  0  0  0  0  0  0
    2.0369   -9.1669  -27.2486 C   0  0  0  0  0  0  0  0  0  0  0  0
    2.8806   -8.6427  -28.2914 C   0  0  0  0  0  0  0  0  0  0  0  0
    3.7787   -7.6159  -28.0103 N   0  0  0  0  0  0  0  0  0  0  0  0
    3.8607   -7.0960  -26.7207 C   0  0  0  0  0  0  0  0  0  0  0  0
    3.0171   -7.6203  -25.6780 C   0  0  0  0  0  0  0  0  0  0  0  0
 18 19  1  0  0  0
 19 20  1  0  0  0
 20 21  1  0  0  0
 21 22  1  0  0  0
 22 23  1  0  0  0
 23 24  1  0  0  0
 19 24  1  0  0  0
 22  1  1  0  0  0
  1  2  1  0  0  0
  2  3  2  0  0  0
  3  4  1  0  0  0
  4  5  2  0  0  0
  1  5  1  0  0  0
  4 25  1  0  0  0
 25 26  2  0  0  0
 26 27  1  0  0  0
 27 28  2  0  0  0
 28 29  1  0  0  0
 29 30  2  0  0  0
 25 30  1  0  0  0
  3  6  1  0  0  0
  6  7  2  0  0  0
  7  8  1  0  0  0
  8  9  2  0  0  0
  9 10  1  0  0  0
 10 11  2  0  0  0
  6 11  1  0  0  0
  9 12  1  0  0  0
 12 13  2  0  0  0
 13 14  1  0  0  0
 12 15  1  0  0  0
 15 16  1  0  0  0
  8 16  1  0  0  0
 14 17  1  0  0  0
M  END
> <minimizedAffinity>
-7.91576

$$$$
mol_11653652_1


 30 34  0  0  0  0  0  0  0  0999 V2000
    6.3694   -5.6284  -23.8852 N   0  0  0  0  0  0  0  0  0  0  0  0
    2.2972   -5.9718  -24.9640 C   0  0  0  0  0  0  0  0  0  0  0  0
    3.6801   -5.8285  -24.5881 C   0  0  0  0  0  0  0  0  0  0  0  0
    4.5936   -6.9268  -24.7710 C   0  0  0  0  0  0  0  0  0  0  0  0
    5.9309   -6.7883  -24.4074 N   0  0  0  0  0  0  0  0  0  0  0  0
    4.1754   -4.5182  -23.9982 C   0  0  0  0  0  0  0  0  0  0  0  0
   -0.5327   -3.3327  -22.1559 C   0  0  0  0  0  0  0  0  0  0  0  0
   -1.1487   -2.4414  -21.2071 C   0  0  0  0  0  0  0  0  0  0  0  0
    1.2620   -3.6083  -21.7171 C   0  0  0  0  0  0  0  0  0  0  0  0
    2.0767   -4.3254  -22.6638 C   0  0  0  0  0  0  0  0  0  0  0  0
    3.3606   -3.8010  -23.0516 C   0  0  0  0  0  0  0  0  0  0  0  0
    1.7573   -2.2979  -21.1273 C   0  0  0  0  0  0  0  0  0  0  0  0
    2.9303   -1.8188  -21.4816 N   0  0  0  0  0  0  0  0  0  0  0  0
    3.7052   -2.5010  -22.3820 O   0  0  0  0  0  0  0  0  0  0  0  0
    0.8974   -1.5410  -20.1282 C   0  0  0  0  0  0  0  0  0  0  0  0
   -0.4280   -1.1745  -20.7758 C   0  0  0  0  0  0  0  0  0  0  0  0
    4.5969   -2.1368  -22.6513 H   0  0  0  0  0  0  0  0  0  0  0  0
    6.7698   -3.7326  -26.3636 C   0  0  0  0  0  0  0  0  0  0  0  0
    7.2956   -5.1588  -26.3471 C   0  0  0  0  0  0  0  0  0  0  0  0
    7.4832   -5.7228  -21.0974 C   0  0  0  0  0  0  0  0  0  0  0  0
    8.2479   -6.1842  -22.3273 C   0  0  0  0  0  0  0  0  0  0  0  0
    7.7329   -5.4870  -23.5146 N   0  0  0  0  0  0  0  0  0  0  0  0
    8.6294   -4.6435  -24.3181 C   0  0  0  0  0  0  0  0  0  0  0  0
    8.6888   -5.1781  -25.7398 C   0  0  0  0  0  0  0  0  0  0  0  0
    4.0982   -8.2372  -25.3609 C   0  0  0  0  0  0  0  0  0  0  0  0
    3.8861   -9.9204  -28.6825 C   0  0  0  0  0  0  0  0  0  0  0  0
    4.4785   -8.9243  -29.5374 C   0  0  0  0  0  0  0  0  0  0  0  0
    4.9325   -7.7236  -28.9969 N   0  0  0  0  0  0  0  0  0  0  0  0
    4.8135   -7.4863  -27.6296 C   0  0  0  0  0  0  0  0  0  0  0  0
    4.2212   -8.4825  -26.7748 C   0  0  0  0  0  0  0  0  0  0  0  0
 18 19  1  0  0  0
 19 20  1  0  0  0
 20 21  1  0  0  0
 21 22  1  0  0  0
 22 23  1  0  0  0
 23 24  1  0  0  0
 19 24  1  0  0  0
 22  1  1  0  0  0
  1  2  1  0  0  0
  2  3  2  0  0  0
  3  4  1  0  0  0
  4  5  2  0  0  0
  1  5  1  0  0  0
  4 25  1  0  0  0
 25 26  2  0  0  0
 26 27  1  0  0  0
 27 28  2  0  0  0
 28 29  1  0  0  0
 29 30  2  0  0  0
 25 30  1  0  0  0
  3  6  1  0  0  0
  6  7  2  0  0  0
  7  8  1  0  0  0
  8  9  2  0  0  0
  9 10  1  0  0  0
 10 11  2  0  0  0
  6 11  1  0  0  0
  9 12  1  0  0  0
 12 13  2  0  0  0
 13 14  1  0  0  0
 12 15  1  0  0  0
 15 16  1  0  0  0
  8 16  1  0  0  0
 14 17  1  0  0  0
M  END
> <minimizedAffinity>
-7.42032

$$$$
mol_11653652_1


 30 34  0  0  0  0  0  0  0  0999 V2000
    4.5515   -5.7283  -24.3756 N   0  0  0  0  0  0  0  0  0  0  0  0
    8.6963   -4.9098  -24.2541 C   0  0  0  0  0  0  0  0  0  0  0  0
    7.2849   -5.1879  -24.3234 C   0  0  0  0  0  0  0  0  0  0  0  0
    6.5248   -5.3618  -23.1125 C   0  0  0  0  0  0  0  0  0  0  0  0
    5.1600   -5.6307  -23.1796 N   0  0  0  0  0  0  0  0  0  0  0  0
    6.5975   -5.2981  -25.6747 C   0  0  0  0  0  0  0  0  0  0  0  0
    8.3817  -10.1179  -26.4174 C   0  0  0  0  0  0  0  0  0  0  0  0
    8.1292  -11.2670  -27.2481 C   0  0  0  0  0  0  0  0  0  0  0  0
    6.8555   -9.0462  -26.3105 C   0  0  0  0  0  0  0  0  0  0  0  0
    6.9866   -7.7620  -25.6718 C   0  0  0  0  0  0  0  0  0  0  0  0
    6.4665   -6.5822  -26.3134 C   0  0  0  0  0  0  0  0  0  0  0  0
    6.1682   -9.1562  -27.6618 C   0  0  0  0  0  0  0  0  0  0  0  0
    5.6930   -8.0784  -28.2479 N   0  0  0  0  0  0  0  0  0  0  0  0
    5.8177   -6.8570  -27.6403 O   0  0  0  0  0  0  0  0  0  0  0  0
    6.0299  -10.5116  -28.3359 C   0  0  0  0  0  0  0  0  0  0  0  0
    7.4101  -11.1009  -28.5769 C   0  0  0  0  0  0  0  0  0  0  0  0
    5.4565   -6.0377  -28.0858 H   0  0  0  0  0  0  0  0  0  0  0  0
    4.0956   -2.7825  -25.3809 C   0  0  0  0  0  0  0  0  0  0  0  0
    3.7370   -3.2163  -23.9689 C   0  0  0  0  0  0  0  0  0  0  0  0
    3.2797   -8.3833  -24.9716 C   0  0  0  0  0  0  0  0  0  0  0  0
    2.6533   -7.3311  -24.0711 C   0  0  0  0  0  0  0  0  0  0  0  0
    3.1598   -6.0025  -24.4440 N   0  0  0  0  0  0  0  0  0  0  0  0
    2.2258   -4.9578  -24.8879 C   0  0  0  0  0  0  0  0  0  0  0  0
    2.3192   -3.7638  -23.9519 C   0  0  0  0  0  0  0  0  0  0  0  0
    7.2123   -5.2516  -21.7613 C   0  0  0  0  0  0  0  0  0  0  0  0
    7.5078   -2.8186  -18.9497 C   0  0  0  0  0  0  0  0  0  0  0  0
    6.6863   -1.7375  -19.4300 C   0  0  0  0  0  0  0  0  0  0  0  0
    6.0563   -1.8385  -20.6681 N   0  0  0  0  0  0  0  0  0  0  0  0
    6.2209   -2.9850  -21.4417 C   0  0  0  0  0  0  0  0  0  0  0  0
    7.0423   -4.0660  -20.9614 C   0  0  0  0  0  0  0  0  0  0  0  0
 18 19  1  0  0  0
 19 20  1  0  0  0
 20 21  1  0  0  0
 21 22  1  0  0  0
 22 23  1  0  0  0
 23 24  1  0  0  0
 19 24  1  0  0  0
 22  1  1  0  0  0
  1  2  1  0  0  0
  2  3  2  0  0  0
  3  4  1  0  0  0
  4  5  2  0  0  0
  1  5  1  0  0  0
  4 25  1  0  0  0
 25 26  2  0  0  0
 26 27  1  0  0  0
 27 28  2  0  0  0
 28 29  1  0  0  0
 29 30  2  0  0  0
 25 30  1  0  0  0
  3  6  1  0  0  0
  6  7  2  0  0  0
  7  8  1  0  0  0
  8  9  2  0  0  0
  9 10  1  0  0  0
 10 11  2  0  0  0
  6 11  1  0  0  0
  9 12  1  0  0  0
 12 13  2  0  0  0
 13 14  1  0  0  0
 12 15  1  0  0  0
 15 16  1  0  0  0
  8 16  1  0  0  0
 14 17  1  0  0  0
M  END
> <minimizedAffinity>
-7.39751

$$$$
mol_11653652_1


 30 34  0  0  0  0  0  0  0  0999 V2000
    5.9381   -5.1821  -24.9812 N   0  0  0  0  0  0  0  0  0  0  0  0
    2.3296   -6.8324  -23.5250 C   0  0  0  0  0  0  0  0  0  0  0  0
    3.5691   -6.2959  -24.0250 C   0  0  0  0  0  0  0  0  0  0  0  0
    3.7564   -4.8702  -24.1054 C   0  0  0  0  0  0  0  0  0  0  0  0
    4.9550   -4.3514  -24.5890 N   0  0  0  0  0  0  0  0  0  0  0  0
    4.6796   -7.2345  -24.4680 C   0  0  0  0  0  0  0  0  0  0  0  0
    1.9463   -8.8590  -28.5735 C   0  0  0  0  0  0  0  0  0  0  0  0
    2.1439   -9.5525  -29.8202 C   0  0  0  0  0  0  0  0  0  0  0  0
    3.5439   -8.0743  -28.0069 C   0  0  0  0  0  0  0  0  0  0  0  0
    3.5718   -7.4979  -26.6874 C   0  0  0  0  0  0  0  0  0  0  0  0
    4.6518   -7.8109  -25.7875 C   0  0  0  0  0  0  0  0  0  0  0  0
    4.6544   -9.0129  -28.4498 C   0  0  0  0  0  0  0  0  0  0  0  0
    5.6411   -9.2988  -27.6278 N   0  0  0  0  0  0  0  0  0  0  0  0
    5.6675   -8.7505  -26.3727 O   0  0  0  0  0  0  0  0  0  0  0  0
    4.6250   -9.6213  -29.8425 C   0  0  0  0  0  0  0  0  0  0  0  0
    3.3591  -10.4460  -30.0086 C   0  0  0  0  0  0  0  0  0  0  0  0
    6.4175   -8.9678  -25.7478 H   0  0  0  0  0  0  0  0  0  0  0  0
    7.4062   -6.4773  -22.5188 C   0  0  0  0  0  0  0  0  0  0  0  0
    7.1496   -4.9817  -22.6082 C   0  0  0  0  0  0  0  0  0  0  0  0
    6.6530   -4.7193  -27.8615 C   0  0  0  0  0  0  0  0  0  0  0  0
    7.1728   -3.8664  -26.7158 C   0  0  0  0  0  0  0  0  0  0  0  0
    7.1602   -4.6532  -25.4742 N   0  0  0  0  0  0  0  0  0  0  0  0
    8.4128   -4.8927  -24.7430 C   0  0  0  0  0  0  0  0  0  0  0  0
    8.3005   -4.3132  -23.3423 C   0  0  0  0  0  0  0  0  0  0  0  0
    2.6458   -3.9316  -23.6624 C   0  0  0  0  0  0  0  0  0  0  0  0
    1.8439   -1.6837  -20.7961 C   0  0  0  0  0  0  0  0  0  0  0  0
    3.0058   -1.8672  -19.9652 C   0  0  0  0  0  0  0  0  0  0  0  0
    4.0234   -2.7272  -20.3712 N   0  0  0  0  0  0  0  0  0  0  0  0
    3.9173   -3.4096  -21.5808 C   0  0  0  0  0  0  0  0  0  0  0  0
    2.7555   -3.2260  -22.4116 C   0  0  0  0  0  0  0  0  0  0  0  0
 18 19  1  0  0  0
 19 20  1  0  0  0
 20 21  1  0  0  0
 21 22  1  0  0  0
 22 23  1  0  0  0
 23 24  1  0  0  0
 19 24  1  0  0  0
 22  1  1  0  0  0
  1  2  1  0  0  0
  2  3  2  0  0  0
  3  4  1  0  0  0
  4  5  2  0  0  0
  1  5  1  0  0  0
  4 25  1  0  0  0
 25 26  2  0  0  0
 26 27  1  0  0  0
 27 28  2  0  0  0
 28 29  1  0  0  0
 29 30  2  0  0  0
 25 30  1  0  0  0
  3  6  1  0  0  0
  6  7  2  0  0  0
  7  8  1  0  0  0
  8  9  2  0  0  0
  9 10  1  0  0  0
 10 11  2  0  0  0
  6 11  1  0  0  0
  9 12  1  0  0  0
 12 13  2  0  0  0
 13 14  1  0  0  0
 12 15  1  0  0  0
 15 16  1  0  0  0
  8 16  1  0  0  0
 14 17  1  0  0  0
M  END
> <minimizedAffinity>
-7.16107

$$$$
mol_11653652_1


 30 34  0  0  0  0  0  0  0  0999 V2000
    6.7884   -4.5875  -21.8427 N   0  0  0  0  0  0  0  0  0  0  0  0
    3.7631   -5.1103  -24.7477 C   0  0  0  0  0  0  0  0  0  0  0  0
    4.7860   -4.9056  -23.7546 C   0  0  0  0  0  0  0  0  0  0  0  0
    5.6672   -5.9865  -23.3950 C   0  0  0  0  0  0  0  0  0  0  0  0
    6.6563   -5.7886  -22.4347 N   0  0  0  0  0  0  0  0  0  0  0  0
    4.9353   -3.5488  -23.0860 C   0  0  0  0  0  0  0  0  0  0  0  0
   -0.1627   -3.2196  -22.1546 C   0  0  0  0  0  0  0  0  0  0  0  0
   -1.0845   -2.4716  -21.3391 C   0  0  0  0  0  0  0  0  0  0  0  0
    1.5410   -3.2047  -21.3890 C   0  0  0  0  0  0  0  0  0  0  0  0
    2.6253   -3.7479  -22.1658 C   0  0  0  0  0  0  0  0  0  0  0  0
    3.8510   -3.0055  -22.3092 C   0  0  0  0  0  0  0  0  0  0  0  0
    1.6904   -1.8477  -20.7204 C   0  0  0  0  0  0  0  0  0  0  0  0
    2.8102   -1.1696  -20.8514 N   0  0  0  0  0  0  0  0  0  0  0  0
    3.8415   -1.6863  -21.5903 O   0  0  0  0  0  0  0  0  0  0  0  0
    0.5460   -1.2744  -19.9006 C   0  0  0  0  0  0  0  0  0  0  0  0
   -0.6804   -1.1154  -20.7842 C   0  0  0  0  0  0  0  0  0  0  0  0
    4.6926   -1.1708  -21.6899 H   0  0  0  0  0  0  0  0  0  0  0  0
    8.6674   -3.4850  -24.1122 C   0  0  0  0  0  0  0  0  0  0  0  0
    8.8660   -4.8622  -23.5002 C   0  0  0  0  0  0  0  0  0  0  0  0
    6.3595   -3.9187  -18.9461 C   0  0  0  0  0  0  0  0  0  0  0  0
    7.5371   -4.7316  -19.4587 C   0  0  0  0  0  0  0  0  0  0  0  0
    7.7969   -4.3856  -20.8636 N   0  0  0  0  0  0  0  0  0  0  0  0
    9.1006   -3.8306  -21.2548 C   0  0  0  0  0  0  0  0  0  0  0  0
    9.7567   -4.7480  -22.2738 C   0  0  0  0  0  0  0  0  0  0  0  0
    5.5178   -7.3434  -24.0637 C   0  0  0  0  0  0  0  0  0  0  0  0
    6.7201   -9.1189  -27.1155 C   0  0  0  0  0  0  0  0  0  0  0  0
    7.5425   -8.1040  -27.7219 C   0  0  0  0  0  0  0  0  0  0  0  0
    7.6794   -6.8607  -27.1091 N   0  0  0  0  0  0  0  0  0  0  0  0
    7.0209   -6.5990  -25.9100 C   0  0  0  0  0  0  0  0  0  0  0  0
    6.1986   -7.6140  -25.3037 C   0  0  0  0  0  0  0  0  0  0  0  0
 18 19  1  0  0  0
 19 20  1  0  0  0
 20 21  1  0  0  0
 21 22  1  0  0  0
 22 23  1  0  0  0
 23 24  1  0  0  0
 19 24  1  0  0  0
 22  1  1  0  0  0
  1  2  1  0  0  0
  2  3  2  0  0  0
  3  4  1  0  0  0
  4  5  2  0  0  0
  1  5  1  0  0  0
  4 25  1  0  0  0
 25 26  2  0  0  0
 26 27  1  0  0  0
 27 28  2  0  0  0
 28 29  1  0  0  0
 29 30  2  0  0  0
 25 30  1  0  0  0
  3  6  1  0  0  0
  6  7  2  0  0  0
  7  8  1  0  0  0
  8  9  2  0  0  0
  9 10  1  0  0  0
 10 11  2  0  0  0
  6 11  1  0  0  0
  9 12  1  0  0  0
 12 13  2  0  0  0
 13 14  1  0  0  0
 12 15  1  0  0  0
 15 16  1  0  0  0
  8 16  1  0  0  0
 14 17  1  0  0  0
M  END
> <minimizedAffinity>
-7.01824

$$$$
mol_44587190_2


 30 34  0  0  0  0  0  0  0  0999 V2000
    6.2822   -5.2671  -23.5063 N   0  0  0  0  0  0  0  0  0  0  0  0
    2.2465   -4.2848  -24.2890 C   0  0  0  0  0  0  0  0  0  0  0  0
    3.6273   -4.5923  -24.0189 C   0  0  0  0  0  0  0  0  0  0  0  0
    4.0775   -5.9602  -24.0384 C   0  0  0  0  0  0  0  0  0  0  0  0
    5.4128   -6.2576  -23.7770 N   0  0  0  0  0  0  0  0  0  0  0  0
    4.6094   -3.4732  -23.7130 C   0  0  0  0  0  0  0  0  0  0  0  0
    2.3345   -2.4460  -19.1594 C   0  0  0  0  0  0  0  0  0  0  0  0
    2.6051   -1.7486  -17.9287 C   0  0  0  0  0  0  0  0  0  0  0  0
    3.9328   -2.9146  -20.0050 C   0  0  0  0  0  0  0  0  0  0  0  0
    3.8482   -3.4543  -21.3376 C   0  0  0  0  0  0  0  0  0  0  0  0
    4.6940   -2.9336  -22.3804 C   0  0  0  0  0  0  0  0  0  0  0  0
    4.9149   -1.7955  -19.6992 C   0  0  0  0  0  0  0  0  0  0  0  0
    5.6876   -1.3199  -20.6519 N   0  0  0  0  0  0  0  0  0  0  0  0
    5.6071   -1.8332  -21.9195 O   0  0  0  0  0  0  0  0  0  0  0  0
    5.0042   -1.2260  -18.2928 C   0  0  0  0  0  0  0  0  0  0  0  0
    3.6554   -0.6505  -17.8926 C   0  0  0  0  0  0  0  0  0  0  0  0
    6.1945   -1.4717  -22.6436 H   0  0  0  0  0  0  0  0  0  0  0  0
    7.0382   -3.9481  -26.2604 C   0  0  0  0  0  0  0  0  0  0  0  0
    7.0462   -5.4548  -26.0597 C   0  0  0  0  0  0  0  0  0  0  0  0
    7.5865   -5.4089  -20.8044 C   0  0  0  0  0  0  0  0  0  0  0  0
    8.0136   -6.2550  -21.9927 C   0  0  0  0  0  0  0  0  0  0  0  0
    7.6436   -5.5704  -23.2399 N   0  0  0  0  0  0  0  0  0  0  0  0
    8.6829   -5.1999  -24.2111 C   0  0  0  0  0  0  0  0  0  0  0  0
    8.4059   -5.8891  -25.5373 C   0  0  0  0  0  0  0  0  0  0  0  0
    3.0954   -7.0792  -24.3442 C   0  0  0  0  0  0  0  0  0  0  0  0
    2.0223   -9.1601  -27.2477 C   0  0  0  0  0  0  0  0  0  0  0  0
    2.8648   -8.6363  -28.2917 C   0  0  0  0  0  0  0  0  0  0  0  0
    3.7647   -7.6108  -28.0116 N   0  0  0  0  0  0  0  0  0  0  0  0
    3.8499   -7.0919  -26.7218 C   0  0  0  0  0  0  0  0  0  0  0  0
    3.0073   -7.6158  -25.6778 C   0  0  0  0  0  0  0  0  0  0  0  0
 18 19  1  0  0  0
 19 20  1  0  0  0
 20 21  1  0  0  0
 21 22  1  0  0  0
 22 23  1  0  0  0
 23 24  1  0  0  0
 19 24  1  0  0  0
 22  1  1  0  0  0
  1  2  1  0  0  0
  2  3  2  0  0  0
  3  4  1  0  0  0
  4  5  2  0  0  0
  1  5  1  0  0  0
  4 25  1  0  0  0
 25 26  2  0  0  0
 26 27  1  0  0  0
 27 28  2  0  0  0
 28 29  1  0  0  0
 29 30  2  0  0  0
 25 30  1  0  0  0
  3  6  1  0  0  0
  6  7  2  0  0  0
  7  8  1  0  0  0
  8  9  2  0  0  0
  9 10  1  0  0  0
 10 11  2  0  0  0
  6 11  1  0  0  0
  9 12  1  0  0  0
 12 13  2  0  0  0
 13 14  1  0  0  0
 12 15  1  0  0  0
 15 16  1  0  0  0
  8 16  1  0  0  0
 14 17  1  0  0  0
M  END
> <minimizedAffinity>
-7.90844

$$$$
mol_44587190_2


 30 34  0  0  0  0  0  0  0  0999 V2000
    6.3557   -5.6207  -23.8292 N   0  0  0  0  0  0  0  0  0  0  0  0
    2.2777   -5.9873  -24.8780 C   0  0  0  0  0  0  0  0  0  0  0  0
    3.6625   -5.8361  -24.5123 C   0  0  0  0  0  0  0  0  0  0  0  0
    4.5803   -6.9300  -24.6996 C   0  0  0  0  0  0  0  0  0  0  0  0
    5.9194   -6.7838  -24.3459 N   0  0  0  0  0  0  0  0  0  0  0  0
    4.1553   -4.5220  -23.9286 C   0  0  0  0  0  0  0  0  0  0  0  0
   -0.5598   -3.3270  -22.1104 C   0  0  0  0  0  0  0  0  0  0  0  0
   -1.1795   -2.4300  -21.1693 C   0  0  0  0  0  0  0  0  0  0  0  0
    1.2334   -3.5993  -21.6636 C   0  0  0  0  0  0  0  0  0  0  0  0
    2.0517   -4.3219  -22.6029 C   0  0  0  0  0  0  0  0  0  0  0  0
    3.3369   -3.7994  -22.9893 C   0  0  0  0  0  0  0  0  0  0  0  0
    1.7262   -2.2852  -21.0799 C   0  0  0  0  0  0  0  0  0  0  0  0
    2.9003   -1.8079  -21.4328 N   0  0  0  0  0  0  0  0  0  0  0  0
    3.6787   -2.4952  -22.3264 O   0  0  0  0  0  0  0  0  0  0  0  0
    0.8625   -1.5226  -20.0885 C   0  0  0  0  0  0  0  0  0  0  0  0
   -0.4607   -1.1604  -20.7431 C   0  0  0  0  0  0  0  0  0  0  0  0
    4.5712   -2.1325  -22.5946 H   0  0  0  0  0  0  0  0  0  0  0  0
    6.7191   -3.6960  -26.2908 C   0  0  0  0  0  0  0  0  0  0  0  0
    7.2569   -5.1176  -26.2937 C   0  0  0  0  0  0  0  0  0  0  0  0
    7.4940   -5.7347  -21.0520 C   0  0  0  0  0  0  0  0  0  0  0  0
    8.2520   -6.1769  -22.2931 C   0  0  0  0  0  0  0  0  0  0  0  0
    7.7210   -5.4716  -23.4686 N   0  0  0  0  0  0  0  0  0  0  0  0
    8.6036   -4.6123  -24.2708 C   0  0  0  0  0  0  0  0  0  0  0  0
    8.6554   -5.1315  -25.6984 C   0  0  0  0  0  0  0  0  0  0  0  0
    4.0874   -8.2441  -25.2833 C   0  0  0  0  0  0  0  0  0  0  0  0
    3.8491   -9.9306  -28.6015 C   0  0  0  0  0  0  0  0  0  0  0  0
    4.4245   -8.9306  -29.4636 C   0  0  0  0  0  0  0  0  0  0  0  0
    4.8760   -7.7264  -28.9289 N   0  0  0  0  0  0  0  0  0  0  0  0
    4.7712   -7.4893  -27.5604 C   0  0  0  0  0  0  0  0  0  0  0  0
    4.1958   -8.4893  -26.6983 C   0  0  0  0  0  0  0  0  0  0  0  0
 18 19  1  0  0  0
 19 20  1  0  0  0
 20 21  1  0  0  0
 21 22  1  0  0  0
 22 23  1  0  0  0
 23 24  1  0  0  0
 19 24  1  0  0  0
 22  1  1  0  0  0
  1  2  1  0  0  0
  2  3  2  0  0  0
  3  4  1  0  0  0
  4  5  2  0  0  0
  1  5  1  0  0  0
  4 25  1  0  0  0
 25 26  2  0  0  0
 26 27  1  0  0  0
 27 28  2  0  0  0
 28 29  1  0  0  0
 29 30  2  0  0  0
 25 30  1  0  0  0
  3  6  1  0  0  0
  6  7  2  0  0  0
  7  8  1  0  0  0
  8  9  2  0  0  0
  9 10  1  0  0  0
 10 11  2  0  0  0
  6 11  1  0  0  0
  9 12  1  0  0  0
 12 13  2  0  0  0
 13 14  1  0  0  0
 12 15  1  0  0  0
 15 16  1  0  0  0
  8 16  1  0  0  0
 14 17  1  0  0  0
M  END
> <minimizedAffinity>
-7.42692

$$$$
mol_44587190_2


 30 34  0  0  0  0  0  0  0  0999 V2000
    4.5348   -5.7109  -24.3742 N   0  0  0  0  0  0  0  0  0  0  0  0
    8.6751   -4.8676  -24.2696 C   0  0  0  0  0  0  0  0  0  0  0  0
    7.2651   -5.1543  -24.3333 C   0  0  0  0  0  0  0  0  0  0  0  0
    6.5106   -5.3304  -23.1192 C   0  0  0  0  0  0  0  0  0  0  0  0
    5.1472   -5.6077  -23.1807 N   0  0  0  0  0  0  0  0  0  0  0  0
    6.5734   -5.2709  -25.6817 C   0  0  0  0  0  0  0  0  0  0  0  0
    8.3691  -10.0880  -26.4146 C   0  0  0  0  0  0  0  0  0  0  0  0
    8.1171  -11.2405  -27.2406 C   0  0  0  0  0  0  0  0  0  0  0  0
    6.8402   -9.0204  -26.3060 C   0  0  0  0  0  0  0  0  0  0  0  0
    6.9697   -7.7337  -25.6720 C   0  0  0  0  0  0  0  0  0  0  0  0
    6.4439   -6.5576  -26.3156 C   0  0  0  0  0  0  0  0  0  0  0  0
    6.1484   -9.1369  -27.6544 C   0  0  0  0  0  0  0  0  0  0  0  0
    5.6680   -8.0625  -28.2424 N   0  0  0  0  0  0  0  0  0  0  0  0
    5.7913   -6.8386  -27.6394 O   0  0  0  0  0  0  0  0  0  0  0  0
    6.0117  -10.4949  -28.3235 C   0  0  0  0  0  0  0  0  0  0  0  0
    7.3929  -11.0809  -28.5674 C   0  0  0  0  0  0  0  0  0  0  0  0
    5.4261   -6.0219  -28.0863 H   0  0  0  0  0  0  0  0  0  0  0  0
    4.0595   -2.7757  -25.4011 C   0  0  0  0  0  0  0  0  0  0  0  0
    3.7070   -3.2005  -23.9849 C   0  0  0  0  0  0  0  0  0  0  0  0
    3.2767   -8.3777  -24.9464 C   0  0  0  0  0  0  0  0  0  0  0  0
    2.6466   -7.3222  -24.0523 C   0  0  0  0  0  0  0  0  0  0  0  0
    3.1446   -5.9936  -24.4369 N   0  0  0  0  0  0  0  0  0  0  0  0
    2.2034   -4.9577  -24.8863 C   0  0  0  0  0  0  0  0  0  0  0  0
    2.2924   -3.7560  -23.9599 C   0  0  0  0  0  0  0  0  0  0  0  0
    7.2025   -5.2138  -21.7708 C   0  0  0  0  0  0  0  0  0  0  0  0
    7.4580   -2.7936  -18.9443 C   0  0  0  0  0  0  0  0  0  0  0  0
    6.6102   -1.7280  -19.4131 C   0  0  0  0  0  0  0  0  0  0  0  0
    5.9764   -1.8348  -20.6487 N   0  0  0  0  0  0  0  0  0  0  0  0
    6.1624   -2.9722  -21.4309 C   0  0  0  0  0  0  0  0  0  0  0  0
    7.0102   -4.0378  -20.9620 C   0  0  0  0  0  0  0  0  0  0  0  0
 18 19  1  0  0  0
 19 20  1  0  0  0
 20 21  1  0  0  0
 21 22  1  0  0  0
 22 23  1  0  0  0
 23 24  1  0  0  0
 19 24  1  0  0  0
 22  1  1  0  0  0
  1  2  1  0  0  0
  2  3  2  0  0  0
  3  4  1  0  0  0
  4  5  2  0  0  0
  1  5  1  0  0  0
  4 25  1  0  0  0
 25 26  2  0  0  0
 26 27  1  0  0  0
 27 28  2  0  0  0
 28 29  1  0  0  0
 29 30  2  0  0  0
 25 30  1  0  0  0
  3  6  1  0  0  0
  6  7  2  0  0  0
  7  8  1  0  0  0
  8  9  2  0  0  0
  9 10  1  0  0  0
 10 11  2  0  0  0
  6 11  1  0  0  0
  9 12  1  0  0  0
 12 13  2  0  0  0
 13 14  1  0  0  0
 12 15  1  0  0  0
 15 16  1  0  0  0
  8 16  1  0  0  0
 14 17  1  0  0  0
M  END
> <minimizedAffinity>
-7.39900

$$$$
mol_44587190_2


 30 34  0  0  0  0  0  0  0  0999 V2000
    6.0599   -5.3269  -23.6646 N   0  0  0  0  0  0  0  0  0  0  0  0
    3.0026   -3.4766  -25.9215 C   0  0  0  0  0  0  0  0  0  0  0  0
    4.0634   -4.0919  -25.1663 C   0  0  0  0  0  0  0  0  0  0  0  0
    3.7553   -5.0825  -24.1672 C   0  0  0  0  0  0  0  0  0  0  0  0
    4.7811   -5.6774  -23.4368 N   0  0  0  0  0  0  0  0  0  0  0  0
    5.5081   -3.6959  -25.4236 C   0  0  0  0  0  0  0  0  0  0  0  0
    5.8160   -6.7578  -29.6062 C   0  0  0  0  0  0  0  0  0  0  0  0
    6.6481   -6.9541  -30.7653 C   0  0  0  0  0  0  0  0  0  0  0  0
    5.9960   -5.0124  -28.9659 C   0  0  0  0  0  0  0  0  0  0  0  0
    5.3771   -4.6986  -27.7038 C   0  0  0  0  0  0  0  0  0  0  0  0
    6.1270   -4.0096  -26.6856 C   0  0  0  0  0  0  0  0  0  0  0  0
    7.4407   -4.6163  -29.2231 C   0  0  0  0  0  0  0  0  0  0  0  0
    8.1259   -3.9868  -28.2929 N   0  0  0  0  0  0  0  0  0  0  0  0
    7.5371   -3.6884  -27.0924 O   0  0  0  0  0  0  0  0  0  0  0  0
    8.0939   -4.9474  -30.5551 C   0  0  0  0  0  0  0  0  0  0  0  0
    8.0831   -6.4530  -30.7643 C   0  0  0  0  0  0  0  0  0  0  0  0
    8.0579   -3.2099  -26.3854 H   0  0  0  0  0  0  0  0  0  0  0  0
    5.3096   -3.4702  -21.2386 C   0  0  0  0  0  0  0  0  0  0  0  0
    6.5496   -3.2292  -22.0839 C   0  0  0  0  0  0  0  0  0  0  0  0
    7.0417   -8.1526  -23.9362 C   0  0  0  0  0  0  0  0  0  0  0  0
    7.9290   -6.9864  -23.5323 C   0  0  0  0  0  0  0  0  0  0  0  0
    7.1058   -5.9336  -22.9199 N   0  0  0  0  0  0  0  0  0  0  0  0
    7.3655   -5.5087  -21.5368 C   0  0  0  0  0  0  0  0  0  0  0  0
    7.7118   -4.0288  -21.5180 C   0  0  0  0  0  0  0  0  0  0  0  0
    2.3105   -5.4784  -23.9099 C   0  0  0  0  0  0  0  0  0  0  0  0
   -0.6350   -4.2578  -21.9744 C   0  0  0  0  0  0  0  0  0  0  0  0
   -0.0904   -3.0777  -21.3540 C   0  0  0  0  0  0  0  0  0  0  0  0
    1.2335   -2.7150  -21.5897 N   0  0  0  0  0  0  0  0  0  0  0  0
    2.0307   -3.4934  -22.4254 C   0  0  0  0  0  0  0  0  0  0  0  0
    1.4861   -4.6735  -23.0459 C   0  0  0  0  0  0  0  0  0  0  0  0
 18 19  1  0  0  0
 19 20  1  0  0  0
 20 21  1  0  0  0
 21 22  1  0  0  0
 22 23  1  0  0  0
 23 24  1  0  0  0
 19 24  1  0  0  0
 22  1  1  0  0  0
  1  2  1  0  0  0
  2  3  2  0  0  0
  3  4  1  0  0  0
  4  5  2  0  0  0
  1  5  1  0  0  0
  4 25  1  0  0  0
 25 26  2  0  0  0
 26 27  1  0  0  0
 27 28  2  0  0  0
 28 29  1  0  0  0
 29 30  2  0  0  0
 25 30  1  0  0  0
  3  6  1  0  0  0
  6  7  2  0  0  0
  7  8  1  0  0  0
  8  9  2  0  0  0
  9 10  1  0  0  0
 10 11  2  0  0  0
  6 11  1  0  0  0
  9 12  1  0  0  0
 12 13  2  0  0  0
 13 14  1  0  0  0
 12 15  1  0  0  0
 15 16  1  0  0  0
  8 16  1  0  0  0
 14 17  1  0  0  0
M  END
> <minimizedAffinity>
-7.16924

$$$$
mol_44587190_2


 30 34  0  0  0  0  0  0  0  0999 V2000
    6.0711   -5.1528  -24.8999 N   0  0  0  0  0  0  0  0  0  0  0  0
    2.3880   -6.7460  -23.5728 C   0  0  0  0  0  0  0  0  0  0  0  0
    3.6526   -6.2291  -24.0289 C   0  0  0  0  0  0  0  0  0  0  0  0
    3.8704   -4.8067  -24.0869 C   0  0  0  0  0  0  0  0  0  0  0  0
    5.0932   -4.3068  -24.5280 N   0  0  0  0  0  0  0  0  0  0  0  0
    4.7573   -7.1849  -24.4490 C   0  0  0  0  0  0  0  0  0  0  0  0
    2.0440   -8.8375  -28.5566 C   0  0  0  0  0  0  0  0  0  0  0  0
    2.2455   -9.5500  -29.7919 C   0  0  0  0  0  0  0  0  0  0  0  0
    3.6445   -8.0614  -27.9863 C   0  0  0  0  0  0  0  0  0  0  0  0
    3.6665   -7.4674  -26.6745 C   0  0  0  0  0  0  0  0  0  0  0  0
    4.7352   -7.7789  -25.7608 C   0  0  0  0  0  0  0  0  0  0  0  0
    4.7492   -9.0172  -28.4064 C   0  0  0  0  0  0  0  0  0  0  0  0
    5.7255   -9.3018  -27.5717 N   0  0  0  0  0  0  0  0  0  0  0  0
    5.7464   -8.7368  -26.3239 O   0  0  0  0  0  0  0  0  0  0  0  0
    4.7259   -9.6442  -29.7909 C   0  0  0  0  0  0  0  0  0  0  0  0
    3.4530  -10.4583  -29.9571 C   0  0  0  0  0  0  0  0  0  0  0  0
    6.4885   -8.9531  -25.6894 H   0  0  0  0  0  0  0  0  0  0  0  0
    7.4348   -6.4871  -22.3988 C   0  0  0  0  0  0  0  0  0  0  0  0
    7.2076   -4.9868  -22.4875 C   0  0  0  0  0  0  0  0  0  0  0  0
    6.8880   -4.6873  -27.7526 C   0  0  0  0  0  0  0  0  0  0  0  0
    7.3849   -3.8499  -26.5855 C   0  0  0  0  0  0  0  0  0  0  0  0
    7.3179   -4.6432  -25.3497 N   0  0  0  0  0  0  0  0  0  0  0  0
    8.5414   -4.9088  -24.5795 C   0  0  0  0  0  0  0  0  0  0  0  0
    8.3936   -4.3350  -23.1797 C   0  0  0  0  0  0  0  0  0  0  0  0
    2.7656   -3.8509  -23.6668 C   0  0  0  0  0  0  0  0  0  0  0  0
    1.8943   -1.6606  -20.7762 C   0  0  0  0  0  0  0  0  0  0  0  0
    3.0127   -1.8979  -19.9004 C   0  0  0  0  0  0  0  0  0  0  0  0
    4.0249   -2.7738  -20.2853 N   0  0  0  0  0  0  0  0  0  0  0  0
    3.9556   -3.4200  -21.5172 C   0  0  0  0  0  0  0  0  0  0  0  0
    2.8373   -3.1827  -22.3930 C   0  0  0  0  0  0  0  0  0  0  0  0
 18 19  1  0  0  0
 19 20  1  0  0  0
 20 21  1  0  0  0
 21 22  1  0  0  0
 22 23  1  0  0  0
 23 24  1  0  0  0
 19 24  1  0  0  0
 22  1  1  0  0  0
  1  2  1  0  0  0
  2  3  2  0  0  0
  3  4  1  0  0  0
  4  5  2  0  0  0
  1  5  1  0  0  0
  4 25  1  0  0  0
 25 26  2  0  0  0
 26 27  1  0  0  0
 27 28  2  0  0  0
 28 29  1  0  0  0
 29 30  2  0  0  0
 25 30  1  0  0  0
  3  6  1  0  0  0
  6  7  2  0  0  0
  7  8  1  0  0  0
  8  9  2  0  0  0
  9 10  1  0  0  0
 10 11  2  0  0  0
  6 11  1  0  0  0
  9 12  1  0  0  0
 12 13  2  0  0  0
 13 14  1  0  0  0
 12 15  1  0  0  0
 15 16  1  0  0  0
  8 16  1  0  0  0
 14 17  1  0  0  0
M  END
> <minimizedAffinity>
-7.16267

$$$$
mol_139592319_3


 30 34  0  0  0  0  0  0  0  0999 V2000
    6.2821   -5.2661  -23.5055 N   0  0  0  0  0  0  0  0  0  0  0  0
    2.2441   -4.2966  -24.2926 C   0  0  0  0  0  0  0  0  0  0  0  0
    3.6255   -4.5998  -24.0209 C   0  0  0  0  0  0  0  0  0  0  0  0
    4.0801   -5.9662  -24.0399 C   0  0  0  0  0  0  0  0  0  0  0  0
    5.4162   -6.2594  -23.7771 N   0  0  0  0  0  0  0  0  0  0  0  0
    4.6037   -3.4776  -23.7140 C   0  0  0  0  0  0  0  0  0  0  0  0
    2.3277   -2.4652  -19.1576 C   0  0  0  0  0  0  0  0  0  0  0  0
    2.5966   -1.7687  -17.9260 C   0  0  0  0  0  0  0  0  0  0  0  0
    3.9272   -2.9269  -20.0048 C   0  0  0  0  0  0  0  0  0  0  0  0
    3.8437   -3.4649  -21.3381 C   0  0  0  0  0  0  0  0  0  0  0  0
    4.6872   -2.9396  -22.3807 C   0  0  0  0  0  0  0  0  0  0  0  0
    4.9054   -1.8047  -19.6979 C   0  0  0  0  0  0  0  0  0  0  0  0
    5.6758   -1.3248  -20.6503 N   0  0  0  0  0  0  0  0  0  0  0  0
    5.5965   -1.8365  -21.9186 O   0  0  0  0  0  0  0  0  0  0  0  0
    4.9935   -1.2368  -18.2907 C   0  0  0  0  0  0  0  0  0  0  0  0
    3.6429   -0.6668  -17.8889 C   0  0  0  0  0  0  0  0  0  0  0  0
    6.1820   -1.4718  -22.6425 H   0  0  0  0  0  0  0  0  0  0  0  0
    7.0353   -3.9562  -26.2647 C   0  0  0  0  0  0  0  0  0  0  0  0
    7.0470   -5.4620  -26.0580 C   0  0  0  0  0  0  0  0  0  0  0  0
    7.5861   -5.3937  -20.8028 C   0  0  0  0  0  0  0  0  0  0  0  0
    8.0156   -6.2436  -21.9876 C   0  0  0  0  0  0  0  0  0  0  0  0
    7.6441   -5.5649  -23.2376 N   0  0  0  0  0  0  0  0  0  0  0  0
    8.6827   -5.1957  -24.2102 C   0  0  0  0  0  0  0  0  0  0  0  0
    8.4077   -5.8909  -25.5336 C   0  0  0  0  0  0  0  0  0  0  0  0
    3.1019   -7.0884  -24.3467 C   0  0  0  0  0  0  0  0  0  0  0  0
    2.0370   -9.1712  -27.2518 C   0  0  0  0  0  0  0  0  0  0  0  0
    2.8783   -8.6440  -28.2951 C   0  0  0  0  0  0  0  0  0  0  0  0
    3.7747   -7.6157  -28.0141 N   0  0  0  0  0  0  0  0  0  0  0  0
    3.8575   -7.0973  -26.7239 C   0  0  0  0  0  0  0  0  0  0  0  0
    3.0163   -7.6245  -25.6806 C   0  0  0  0  0  0  0  0  0  0  0  0
 18 19  1  0  0  0
 19 20  1  0  0  0
 20 21  1  0  0  0
 21 22  1  0  0  0
 22 23  1  0  0  0
 23 24  1  0  0  0
 19 24  1  0  0  0
 22  1  1  0  0  0
  1  2  1  0  0  0
  2  3  2  0  0  0
  3  4  1  0  0  0
  4  5  2  0  0  0
  1  5  1  0  0  0
  4 25  1  0  0  0
 25 26  2  0  0  0
 26 27  1  0  0  0
 27 28  2  0  0  0
 28 29  1  0  0  0
 29 30  2  0  0  0
 25 30  1  0  0  0
  3  6  1  0  0  0
  6  7  2  0  0  0
  7  8  1  0  0  0
  8  9  2  0  0  0
  9 10  1  0  0  0
 10 11  2  0  0  0
  6 11  1  0  0  0
  9 12  1  0  0  0
 12 13  2  0  0  0
 13 14  1  0  0  0
 12 15  1  0  0  0
 15 16  1  0  0  0
  8 16  1  0  0  0
 14 17  1  0  0  0
M  END
> <minimizedAffinity>
-7.91883

$$$$
mol_139592319_3


 30 34  0  0  0  0  0  0  0  0999 V2000
    6.5025   -5.7646  -24.0803 N   0  0  0  0  0  0  0  0  0  0  0  0
    2.4495   -6.0458  -25.2457 C   0  0  0  0  0  0  0  0  0  0  0  0
    3.8261   -5.9235  -24.8407 C   0  0  0  0  0  0  0  0  0  0  0  0
    4.7219   -7.0417  -24.9873 C   0  0  0  0  0  0  0  0  0  0  0  0
    6.0533   -6.9235  -24.5956 N   0  0  0  0  0  0  0  0  0  0  0  0
    4.3336   -4.6143  -24.2585 C   0  0  0  0  0  0  0  0  0  0  0  0
   -0.3271   -3.4487  -22.2877 C   0  0  0  0  0  0  0  0  0  0  0  0
   -0.9201   -2.5629  -21.3192 C   0  0  0  0  0  0  0  0  0  0  0  0
    1.4791   -3.7216  -21.8976 C   0  0  0  0  0  0  0  0  0  0  0  0
    2.2703   -4.4326  -22.8685 C   0  0  0  0  0  0  0  0  0  0  0  0
    3.5424   -3.9033  -23.2877 C   0  0  0  0  0  0  0  0  0  0  0  0
    1.9866   -2.4124  -21.3154 C   0  0  0  0  0  0  0  0  0  0  0  0
    3.1487   -1.9288  -21.6985 N   0  0  0  0  0  0  0  0  0  0  0  0
    3.9014   -2.6052  -22.6219 O   0  0  0  0  0  0  0  0  0  0  0  0
    1.1516   -1.6619  -20.2908 C   0  0  0  0  0  0  0  0  0  0  0  0
   -0.1914   -1.2960  -20.9017 C   0  0  0  0  0  0  0  0  0  0  0  0
    4.7846   -2.2377  -22.9130 H   0  0  0  0  0  0  0  0  0  0  0  0
    6.9649   -3.8126  -26.5035 C   0  0  0  0  0  0  0  0  0  0  0  0
    7.4787   -5.2431  -26.5122 C   0  0  0  0  0  0  0  0  0  0  0  0
    7.5627   -5.9364  -21.2753 C   0  0  0  0  0  0  0  0  0  0  0  0
    8.3466   -6.3744  -22.5017 C   0  0  0  0  0  0  0  0  0  0  0  0
    7.8598   -5.6441  -23.6809 N   0  0  0  0  0  0  0  0  0  0  0  0
    8.7781   -4.7890  -24.4467 C   0  0  0  0  0  0  0  0  0  0  0  0
    8.8601   -5.2893  -25.8797 C   0  0  0  0  0  0  0  0  0  0  0  0
    4.2143   -8.3508  -25.5694 C   0  0  0  0  0  0  0  0  0  0  0  0
    3.9984  -10.0574  -28.8789 C   0  0  0  0  0  0  0  0  0  0  0  0
    4.6061   -9.0747  -29.7386 C   0  0  0  0  0  0  0  0  0  0  0  0
    5.0712   -7.8751  -29.2053 N   0  0  0  0  0  0  0  0  0  0  0  0
    4.9486   -7.6259  -27.8404 C   0  0  0  0  0  0  0  0  0  0  0  0
    4.3410   -8.6086  -26.9806 C   0  0  0  0  0  0  0  0  0  0  0  0
 18 19  1  0  0  0
 19 20  1  0  0  0
 20 21  1  0  0  0
 21 22  1  0  0  0
 22 23  1  0  0  0
 23 24  1  0  0  0
 19 24  1  0  0  0
 22  1  1  0  0  0
  1  2  1  0  0  0
  2  3  2  0  0  0
  3  4  1  0  0  0
  4  5  2  0  0  0
  1  5  1  0  0  0
  4 25  1  0  0  0
 25 26  2  0  0  0
 26 27  1  0  0  0
 27 28  2  0  0  0
 28 29  1  0  0  0
 29 30  2  0  0  0
 25 30  1  0  0  0
  3  6  1  0  0  0
  6  7  2  0  0  0
  7  8  1  0  0  0
  8  9  2  0  0  0
  9 10  1  0  0  0
 10 11  2  0  0  0
  6 11  1  0  0  0
  9 12  1  0  0  0
 12 13  2  0  0  0
 13 14  1  0  0  0
 12 15  1  0  0  0
 15 16  1  0  0  0
  8 16  1  0  0  0
 14 17  1  0  0  0
M  END
> <minimizedAffinity>
-7.36132

$$$$
mol_139592319_3


 30 34  0  0  0  0  0  0  0  0999 V2000
    6.7824   -4.4238  -21.2751 N   0  0  0  0  0  0  0  0  0  0  0  0
    4.1587   -5.9524  -24.2152 C   0  0  0  0  0  0  0  0  0  0  0  0
    5.0683   -5.4545  -23.2158 C   0  0  0  0  0  0  0  0  0  0  0  0
    4.8317   -4.1741  -22.6005 C   0  0  0  0  0  0  0  0  0  0  0  0
    5.7114   -3.6927  -21.6339 N   0  0  0  0  0  0  0  0  0  0  0  0
    6.2783   -6.2805  -22.8105 C   0  0  0  0  0  0  0  0  0  0  0  0
    5.8958   -9.2839  -27.0294 C   0  0  0  0  0  0  0  0  0  0  0  0
    6.6855  -10.2207  -27.7863 C   0  0  0  0  0  0  0  0  0  0  0  0
    7.0042   -8.1359  -26.0586 C   0  0  0  0  0  0  0  0  0  0  0  0
    6.3801   -7.2566  -25.1039 C   0  0  0  0  0  0  0  0  0  0  0  0
    6.9024   -7.1598  -23.7652 C   0  0  0  0  0  0  0  0  0  0  0  0
    8.2142   -8.9619  -25.6533 C   0  0  0  0  0  0  0  0  0  0  0  0
    8.6913   -8.8736  -24.4303 N   0  0  0  0  0  0  0  0  0  0  0  0
    8.0976   -8.0371  -23.5222 O   0  0  0  0  0  0  0  0  0  0  0  0
    8.8730   -9.8900  -26.6608 C   0  0  0  0  0  0  0  0  0  0  0  0
    7.8636  -10.9241  -27.1325 C   0  0  0  0  0  0  0  0  0  0  0  0
    8.4602   -7.9699  -22.5927 H   0  0  0  0  0  0  0  0  0  0  0  0
    8.5956   -3.3049  -23.5895 C   0  0  0  0  0  0  0  0  0  0  0  0
    8.9783   -4.5414  -22.7927 C   0  0  0  0  0  0  0  0  0  0  0  0
    6.0654   -3.4856  -18.5134 C   0  0  0  0  0  0  0  0  0  0  0  0
    7.3908   -4.1422  -18.8637 C   0  0  0  0  0  0  0  0  0  0  0  0
    7.6794   -3.9330  -20.2899 N   0  0  0  0  0  0  0  0  0  0  0  0
    8.8965   -3.2156  -20.6959 C   0  0  0  0  0  0  0  0  0  0  0  0
    9.7580   -4.1260  -21.5559 C   0  0  0  0  0  0  0  0  0  0  0  0
    3.6217   -3.3482  -23.0058 C   0  0  0  0  0  0  0  0  0  0  0  0
    0.8041   -1.5132  -21.3916 C   0  0  0  0  0  0  0  0  0  0  0  0
    1.0818   -1.7478  -19.9980 C   0  0  0  0  0  0  0  0  0  0  0  0
    2.1903   -2.5047  -19.6265 N   0  0  0  0  0  0  0  0  0  0  0  0
    3.0305   -3.0347  -20.6028 C   0  0  0  0  0  0  0  0  0  0  0  0
    2.7530   -2.8001  -21.9964 C   0  0  0  0  0  0  0  0  0  0  0  0
 18 19  1  0  0  0
 19 20  1  0  0  0
 20 21  1  0  0  0
 21 22  1  0  0  0
 22 23  1  0  0  0
 23 24  1  0  0  0
 19 24  1  0  0  0
 22  1  1  0  0  0
  1  2  1  0  0  0
  2  3  2  0  0  0
  3  4  1  0  0  0
  4  5  2  0  0  0
  1  5  1  0  0  0
  4 25  1  0  0  0
 25 26  2  0  0  0
 26 27  1  0  0  0
 27 28  2  0  0  0
 28 29  1  0  0  0
 29 30  2  0  0  0
 25 30  1  0  0  0
  3  6  1  0  0  0
  6  7  2  0  0  0
  7  8  1  0  0  0
  8  9  2  0  0  0
  9 10  1  0  0  0
 10 11  2  0  0  0
  6 11  1  0  0  0
  9 12  1  0  0  0
 12 13  2  0  0  0
 13 14  1  0  0  0
 12 15  1  0  0  0
 15 16  1  0  0  0
  8 16  1  0  0  0
 14 17  1  0  0  0
M  END
> <minimizedAffinity>
-7.28035

$$$$
mol_139592319_3


 30 34  0  0  0  0  0  0  0  0999 V2000
    6.0638   -5.3176  -23.6756 N   0  0  0  0  0  0  0  0  0  0  0  0
    3.0019   -3.4610  -25.9211 C   0  0  0  0  0  0  0  0  0  0  0  0
    4.0641   -4.0785  -25.1699 C   0  0  0  0  0  0  0  0  0  0  0  0
    3.7576   -5.0679  -24.1692 C   0  0  0  0  0  0  0  0  0  0  0  0
    4.7850   -5.6650  -23.4426 N   0  0  0  0  0  0  0  0  0  0  0  0
    5.5088   -3.6859  -25.4331 C   0  0  0  0  0  0  0  0  0  0  0  0
    5.8109   -6.7950  -29.5813 C   0  0  0  0  0  0  0  0  0  0  0  0
    6.6416   -7.0045  -30.7390 C   0  0  0  0  0  0  0  0  0  0  0  0
    5.9922   -5.0425  -28.9609 C   0  0  0  0  0  0  0  0  0  0  0  0
    5.3748   -4.7143  -27.7018 C   0  0  0  0  0  0  0  0  0  0  0  0
    6.1262   -4.0141  -26.6921 C   0  0  0  0  0  0  0  0  0  0  0  0
    7.4370   -4.6500  -29.2241 C   0  0  0  0  0  0  0  0  0  0  0  0
    8.1234   -4.0105  -28.3017 N   0  0  0  0  0  0  0  0  0  0  0  0
    7.5361   -3.6982  -27.1040 O   0  0  0  0  0  0  0  0  0  0  0  0
    8.0886   -4.9964  -30.5529 C   0  0  0  0  0  0  0  0  0  0  0  0
    8.0769   -6.5042  -30.7451 C   0  0  0  0  0  0  0  0  0  0  0  0
    8.0577   -3.2121  -26.4030 H   0  0  0  0  0  0  0  0  0  0  0  0
    5.3097   -3.4771  -21.2384 C   0  0  0  0  0  0  0  0  0  0  0  0
    6.5491   -3.2283  -22.0825 C   0  0  0  0  0  0  0  0  0  0  0  0
    7.0517   -8.1394  -23.9645 C   0  0  0  0  0  0  0  0  0  0  0  0
    7.9365   -6.9737  -23.5537 C   0  0  0  0  0  0  0  0  0  0  0  0
    7.1111   -5.9263  -22.9349 N   0  0  0  0  0  0  0  0  0  0  0  0
    7.3701   -5.5092  -21.5493 C   0  0  0  0  0  0  0  0  0  0  0  0
    7.7132   -4.0287  -21.5216 C   0  0  0  0  0  0  0  0  0  0  0  0
    2.3130   -5.4603  -23.9060 C   0  0  0  0  0  0  0  0  0  0  0  0
   -0.6162   -4.2427  -21.9439 C   0  0  0  0  0  0  0  0  0  0  0  0
   -0.0634   -3.0691  -21.3186 C   0  0  0  0  0  0  0  0  0  0  0  0
    1.2604   -2.7094  -21.5597 N   0  0  0  0  0  0  0  0  0  0  0  0
    2.0496   -3.4849  -22.4058 C   0  0  0  0  0  0  0  0  0  0  0  0
    1.4969   -4.6585  -23.0312 C   0  0  0  0  0  0  0  0  0  0  0  0
 18 19  1  0  0  0
 19 20  1  0  0  0
 20 21  1  0  0  0
 21 22  1  0  0  0
 22 23  1  0  0  0
 23 24  1  0  0  0
 19 24  1  0  0  0
 22  1  1  0  0  0
  1  2  1  0  0  0
  2  3  2  0  0  0
  3  4  1  0  0  0
  4  5  2  0  0  0
  1  5  1  0  0  0
  4 25  1  0  0  0
 25 26  2  0  0  0
 26 27  1  0  0  0
 27 28  2  0  0  0
 28 29  1  0  0  0
 29 30  2  0  0  0
 25 30  1  0  0  0
  3  6  1  0  0  0
  6  7  2  0  0  0
  7  8  1  0  0  0
  8  9  2  0  0  0
  9 10  1  0  0  0
 10 11  2  0  0  0
  6 11  1  0  0  0
  9 12  1  0  0  0
 12 13  2  0  0  0
 13 14  1  0  0  0
 12 15  1  0  0  0
 15 16  1  0  0  0
  8 16  1  0  0  0
 14 17  1  0  0  0
M  END
> <minimizedAffinity>
-7.17592

$$$$
mol_139592319_3


 30 34  0  0  0  0  0  0  0  0999 V2000
    5.9590   -5.1648  -24.9611 N   0  0  0  0  0  0  0  0  0  0  0  0
    2.3301   -6.8082  -23.5488 C   0  0  0  0  0  0  0  0  0  0  0  0
    3.5764   -6.2741  -24.0340 C   0  0  0  0  0  0  0  0  0  0  0  0
    3.7702   -4.8487  -24.1048 C   0  0  0  0  0  0  0  0  0  0  0  0
    4.9756   -4.3322  -24.5740 N   0  0  0  0  0  0  0  0  0  0  0  0
    4.6875   -7.2147  -24.4714 C   0  0  0  0  0  0  0  0  0  0  0  0
    1.9619   -8.8521  -28.5770 C   0  0  0  0  0  0  0  0  0  0  0  0
    2.1618   -9.5499  -29.8209 C   0  0  0  0  0  0  0  0  0  0  0  0
    3.5587   -8.0661  -28.0098 C   0  0  0  0  0  0  0  0  0  0  0  0
    3.5840   -7.4853  -26.6922 C   0  0  0  0  0  0  0  0  0  0  0  0
    4.6621   -7.7956  -25.7890 C   0  0  0  0  0  0  0  0  0  0  0  0
    4.6697   -9.0068  -28.4472 C   0  0  0  0  0  0  0  0  0  0  0  0
    5.6544   -9.2903  -27.6221 N   0  0  0  0  0  0  0  0  0  0  0  0
    5.6786   -8.7378  -26.3687 O   0  0  0  0  0  0  0  0  0  0  0  0
    4.6430   -9.6198  -29.8378 C   0  0  0  0  0  0  0  0  0  0  0  0
    3.3769  -10.4446  -30.0036 C   0  0  0  0  0  0  0  0  0  0  0  0
    6.4271   -8.9533  -25.7416 H   0  0  0  0  0  0  0  0  0  0  0  0
    7.3989   -6.4828  -22.4942 C   0  0  0  0  0  0  0  0  0  0  0  0
    7.1498   -4.9856  -22.5760 C   0  0  0  0  0  0  0  0  0  0  0  0
    6.7022   -4.6864  -27.8318 C   0  0  0  0  0  0  0  0  0  0  0  0
    7.2152   -3.8433  -26.6758 C   0  0  0  0  0  0  0  0  0  0  0  0
    7.1879   -4.6383  -25.4396 N   0  0  0  0  0  0  0  0  0  0  0  0
    8.4327   -4.8881  -24.6987 C   0  0  0  0  0  0  0  0  0  0  0  0
    8.3103   -4.3174  -23.2952 C   0  0  0  0  0  0  0  0  0  0  0  0
    2.6591   -3.9081  -23.6675 C   0  0  0  0  0  0  0  0  0  0  0  0
    1.8350   -1.6777  -20.7938 C   0  0  0  0  0  0  0  0  0  0  0  0
    2.9864   -1.8732  -19.9511 C   0  0  0  0  0  0  0  0  0  0  0  0
    4.0045   -2.7351  -20.3517 N   0  0  0  0  0  0  0  0  0  0  0  0
    3.9091   -3.4079  -21.5675 C   0  0  0  0  0  0  0  0  0  0  0  0
    2.7578   -3.2124  -22.4104 C   0  0  0  0  0  0  0  0  0  0  0  0
 18 19  1  0  0  0
 19 20  1  0  0  0
 20 21  1  0  0  0
 21 22  1  0  0  0
 22 23  1  0  0  0
 23 24  1  0  0  0
 19 24  1  0  0  0
 22  1  1  0  0  0
  1  2  1  0  0  0
  2  3  2  0  0  0
  3  4  1  0  0  0
  4  5  2  0  0  0
  1  5  1  0  0  0
  4 25  1  0  0  0
 25 26  2  0  0  0
 26 27  1  0  0  0
 27 28  2  0  0  0
 28 29  1  0  0  0
 29 30  2  0  0  0
 25 30  1  0  0  0
  3  6  1  0  0  0
  6  7  2  0  0  0
  7  8  1  0  0  0
  8  9  2  0  0  0
  9 10  1  0  0  0
 10 11  2  0  0  0
  6 11  1  0  0  0
  9 12  1  0  0  0
 12 13  2  0  0  0
 13 14  1  0  0  0
 12 15  1  0  0  0
 15 16  1  0  0  0
  8 16  1  0  0  0
 14 17  1  0  0  0
M  END
> <minimizedAffinity>
-7.15209

$$$$
mol_135927350_4


 30 34  0  0  0  0  0  0  0  0999 V2000
    6.2832   -5.2666  -23.5038 N   0  0  0  0  0  0  0  0  0  0  0  0
    2.2469   -4.2962  -24.2983 C   0  0  0  0  0  0  0  0  0  0  0  0
    3.6279   -4.5997  -24.0240 C   0  0  0  0  0  0  0  0  0  0  0  0
    4.0822   -5.9663  -24.0425 C   0  0  0  0  0  0  0  0  0  0  0  0
    5.4176   -6.2598  -23.7773 N   0  0  0  0  0  0  0  0  0  0  0  0
    4.6057   -3.4778  -23.7150 C   0  0  0  0  0  0  0  0  0  0  0  0
    2.3190   -2.4636  -19.1644 C   0  0  0  0  0  0  0  0  0  0  0  0
    2.5851   -1.7668  -17.9323 C   0  0  0  0  0  0  0  0  0  0  0  0
    3.9204   -2.9259  -20.0076 C   0  0  0  0  0  0  0  0  0  0  0  0
    3.8400   -3.4642  -21.3410 C   0  0  0  0  0  0  0  0  0  0  0  0
    4.6861   -2.9395  -22.3816 C   0  0  0  0  0  0  0  0  0  0  0  0
    4.8982   -1.8040  -19.6987 C   0  0  0  0  0  0  0  0  0  0  0  0
    5.6711   -1.3245  -20.6493 N   0  0  0  0  0  0  0  0  0  0  0  0
    5.5946   -1.8367  -21.9177 O   0  0  0  0  0  0  0  0  0  0  0  0
    4.9831   -1.2358  -18.2913 C   0  0  0  0  0  0  0  0  0  0  0  0
    3.6317   -0.6653  -17.8929 C   0  0  0  0  0  0  0  0  0  0  0  0
    6.1821   -1.4723  -22.6402 H   0  0  0  0  0  0  0  0  0  0  0  0
    7.0428   -3.9497  -26.2578 C   0  0  0  0  0  0  0  0  0  0  0  0
    7.0542   -5.4560  -26.0549 C   0  0  0  0  0  0  0  0  0  0  0  0
    7.5810   -5.4009  -20.7983 C   0  0  0  0  0  0  0  0  0  0  0  0
    8.0133   -6.2475  -21.9842 C   0  0  0  0  0  0  0  0  0  0  0  0
    7.6448   -5.5659  -23.2334 N   0  0  0  0  0  0  0  0  0  0  0  0
    8.6856   -5.1940  -24.2026 C   0  0  0  0  0  0  0  0  0  0  0  0
    8.4138   -5.8859  -25.5283 C   0  0  0  0  0  0  0  0  0  0  0  0
    3.1043   -7.0882  -24.3515 C   0  0  0  0  0  0  0  0  0  0  0  0
    2.0421   -9.1678  -27.2599 C   0  0  0  0  0  0  0  0  0  0  0  0
    2.8842   -8.6393  -28.3019 C   0  0  0  0  0  0  0  0  0  0  0  0
    3.7803   -7.6112  -28.0188 N   0  0  0  0  0  0  0  0  0  0  0  0
    3.8620   -7.0942  -26.7281 C   0  0  0  0  0  0  0  0  0  0  0  0
    3.0199   -7.6228  -25.6861 C   0  0  0  0  0  0  0  0  0  0  0  0
 18 19  1  0  0  0
 19 20  1  0  0  0
 20 21  1  0  0  0
 21 22  1  0  0  0
 22 23  1  0  0  0
 23 24  1  0  0  0
 19 24  1  0  0  0
 22  1  1  0  0  0
  1  2  1  0  0  0
  2  3  2  0  0  0
  3  4  1  0  0  0
  4  5  2  0  0  0
  1  5  1  0  0  0
  4 25  1  0  0  0
 25 26  2  0  0  0
 26 27  1  0  0  0
 27 28  2  0  0  0
 28 29  1  0  0  0
 29 30  2  0  0  0
 25 30  1  0  0  0
  3  6  1  0  0  0
  6  7  2  0  0  0
  7  8  1  0  0  0
  8  9  2  0  0  0
  9 10  1  0  0  0
 10 11  2  0  0  0
  6 11  1  0  0  0
  9 12  1  0  0  0
 12 13  2  0  0  0
 13 14  1  0  0  0
 12 15  1  0  0  0
 15 16  1  0  0  0
  8 16  1  0  0  0
 14 17  1  0  0  0
M  END
> <minimizedAffinity>
-7.90847

$$$$
mol_135927350_4


 30 34  0  0  0  0  0  0  0  0999 V2000
    6.3580   -5.6089  -23.8469 N   0  0  0  0  0  0  0  0  0  0  0  0
    2.2864   -5.9985  -24.9123 C   0  0  0  0  0  0  0  0  0  0  0  0
    3.6689   -5.8395  -24.5410 C   0  0  0  0  0  0  0  0  0  0  0  0
    4.5916   -6.9314  -24.7160 C   0  0  0  0  0  0  0  0  0  0  0  0
    5.9285   -6.7775  -24.3570 N   0  0  0  0  0  0  0  0  0  0  0  0
    4.1539   -4.5194  -23.9647 C   0  0  0  0  0  0  0  0  0  0  0  0
   -0.5637   -3.3508  -22.1361 C   0  0  0  0  0  0  0  0  0  0  0  0
   -1.1869   -2.4543  -21.1969 C   0  0  0  0  0  0  0  0  0  0  0  0
    1.2328   -3.6080  -21.6940 C   0  0  0  0  0  0  0  0  0  0  0  0
    2.0533   -4.3288  -22.6330 C   0  0  0  0  0  0  0  0  0  0  0  0
    3.3334   -3.7986  -23.0258 C   0  0  0  0  0  0  0  0  0  0  0  0
    1.7180   -2.2879  -21.1178 C   0  0  0  0  0  0  0  0  0  0  0  0
    2.8874   -1.8035  -21.4767 N   0  0  0  0  0  0  0  0  0  0  0  0
    3.6678   -2.4892  -22.3698 O   0  0  0  0  0  0  0  0  0  0  0  0
    0.8520   -1.5272  -20.1268 C   0  0  0  0  0  0  0  0  0  0  0  0
   -0.4760   -1.1776  -20.7785 C   0  0  0  0  0  0  0  0  0  0  0  0
    4.5568   -2.1210  -22.6425 H   0  0  0  0  0  0  0  0  0  0  0  0
    6.7241   -3.6951  -26.3165 C   0  0  0  0  0  0  0  0  0  0  0  0
    7.2680   -5.1145  -26.3097 C   0  0  0  0  0  0  0  0  0  0  0  0
    7.4842   -5.7039  -21.0640 C   0  0  0  0  0  0  0  0  0  0  0  0
    8.2496   -6.1489  -22.2994 C   0  0  0  0  0  0  0  0  0  0  0  0
    7.7210   -5.4521  -23.4809 N   0  0  0  0  0  0  0  0  0  0  0  0
    8.6034   -4.5930  -24.2835 C   0  0  0  0  0  0  0  0  0  0  0  0
    8.6638   -5.1192  -25.7081 C   0  0  0  0  0  0  0  0  0  0  0  0
    4.1064   -8.2516  -25.2922 C   0  0  0  0  0  0  0  0  0  0  0  0
    3.8966   -9.9661  -28.5980 C   0  0  0  0  0  0  0  0  0  0  0  0
    4.4757   -8.9717  -29.4642 C   0  0  0  0  0  0  0  0  0  0  0  0
    4.9202   -7.7620  -28.9362 N   0  0  0  0  0  0  0  0  0  0  0  0
    4.8048   -7.5138  -27.5705 C   0  0  0  0  0  0  0  0  0  0  0  0
    4.2258   -8.5082  -26.7044 C   0  0  0  0  0  0  0  0  0  0  0  0
 18 19  1  0  0  0
 19 20  1  0  0  0
 20 21  1  0  0  0
 21 22  1  0  0  0
 22 23  1  0  0  0
 23 24  1  0  0  0
 19 24  1  0  0  0
 22  1  1  0  0  0
  1  2  1  0  0  0
  2  3  2  0  0  0
  3  4  1  0  0  0
  4  5  2  0  0  0
  1  5  1  0  0  0
  4 25  1  0  0  0
 25 26  2  0  0  0
 26 27  1  0  0  0
 27 28  2  0  0  0
 28 29  1  0  0  0
 29 30  2  0  0  0
 25 30  1  0  0  0
  3  6  1  0  0  0
  6  7  2  0  0  0
  7  8  1  0  0  0
  8  9  2  0  0  0
  9 10  1  0  0  0
 10 11  2  0  0  0
  6 11  1  0  0  0
  9 12  1  0  0  0
 12 13  2  0  0  0
 13 14  1  0  0  0
 12 15  1  0  0  0
 15 16  1  0  0  0
  8 16  1  0  0  0
 14 17  1  0  0  0
M  END
> <minimizedAffinity>
-7.40848

$$$$
mol_135927350_4


 30 34  0  0  0  0  0  0  0  0999 V2000
    4.5412   -5.7223  -24.3722 N   0  0  0  0  0  0  0  0  0  0  0  0
    8.6840   -4.8922  -24.2579 C   0  0  0  0  0  0  0  0  0  0  0  0
    7.2732   -5.1744  -24.3248 C   0  0  0  0  0  0  0  0  0  0  0  0
    6.5156   -5.3494  -23.1125 C   0  0  0  0  0  0  0  0  0  0  0  0
    5.1514   -5.6223  -23.1772 N   0  0  0  0  0  0  0  0  0  0  0  0
    6.5840   -5.2874  -25.6747 C   0  0  0  0  0  0  0  0  0  0  0  0
    8.3791  -10.1034  -26.4160 C   0  0  0  0  0  0  0  0  0  0  0  0
    8.1282  -11.2539  -27.2454 C   0  0  0  0  0  0  0  0  0  0  0  0
    6.8504   -9.0355  -26.3078 C   0  0  0  0  0  0  0  0  0  0  0  0
    6.9793   -7.7504  -25.6704 C   0  0  0  0  0  0  0  0  0  0  0  0
    6.4551   -6.5725  -26.3121 C   0  0  0  0  0  0  0  0  0  0  0  0
    6.1612   -9.1484  -27.6578 C   0  0  0  0  0  0  0  0  0  0  0  0
    5.6824   -8.0724  -28.2441 N   0  0  0  0  0  0  0  0  0  0  0  0
    5.8050   -6.8500  -27.6377 O   0  0  0  0  0  0  0  0  0  0  0  0
    6.0252  -10.5047  -28.3305 C   0  0  0  0  0  0  0  0  0  0  0  0
    7.4065  -11.0908  -28.5732 C   0  0  0  0  0  0  0  0  0  0  0  0
    5.4410   -6.0321  -28.0834 H   0  0  0  0  0  0  0  0  0  0  0  0
    4.0759   -2.7799  -25.3829 C   0  0  0  0  0  0  0  0  0  0  0  0
    3.7205   -3.2118  -23.9695 C   0  0  0  0  0  0  0  0  0  0  0  0
    3.2759   -8.3821  -24.9610 C   0  0  0  0  0  0  0  0  0  0  0  0
    2.6480   -7.3298  -24.0618 C   0  0  0  0  0  0  0  0  0  0  0  0
    3.1503   -6.0006  -24.4381 N   0  0  0  0  0  0  0  0  0  0  0  0
    2.2127   -4.9593  -24.8827 C   0  0  0  0  0  0  0  0  0  0  0  0
    2.3042   -3.7632  -23.9493 C   0  0  0  0  0  0  0  0  0  0  0  0
    7.2049   -5.2364  -21.7625 C   0  0  0  0  0  0  0  0  0  0  0  0
    7.4811   -2.8099  -18.9433 C   0  0  0  0  0  0  0  0  0  0  0  0
    6.6472   -1.7359  -19.4182 C   0  0  0  0  0  0  0  0  0  0  0  0
    6.0156   -1.8394  -20.6553 N   0  0  0  0  0  0  0  0  0  0  0  0
    6.1903   -2.9816  -21.4331 C   0  0  0  0  0  0  0  0  0  0  0  0
    7.0242   -4.0555  -20.9582 C   0  0  0  0  0  0  0  0  0  0  0  0
 18 19  1  0  0  0
 19 20  1  0  0  0
 20 21  1  0  0  0
 21 22  1  0  0  0
 22 23  1  0  0  0
 23 24  1  0  0  0
 19 24  1  0  0  0
 22  1  1  0  0  0
  1  2  1  0  0  0
  2  3  2  0  0  0
  3  4  1  0  0  0
  4  5  2  0  0  0
  1  5  1  0  0  0
  4 25  1  0  0  0
 25 26  2  0  0  0
 26 27  1  0  0  0
 27 28  2  0  0  0
 28 29  1  0  0  0
 29 30  2  0  0  0
 25 30  1  0  0  0
  3  6  1  0  0  0
  6  7  2  0  0  0
  7  8  1  0  0  0
  8  9  2  0  0  0
  9 10  1  0  0  0
 10 11  2  0  0  0
  6 11  1  0  0  0
  9 12  1  0  0  0
 12 13  2  0  0  0
 13 14  1  0  0  0
 12 15  1  0  0  0
 15 16  1  0  0  0
  8 16  1  0  0  0
 14 17  1  0  0  0
M  END
> <minimizedAffinity>
-7.39088

$$$$
mol_135927350_4


 30 34  0  0  0  0  0  0  0  0999 V2000
    6.8004   -4.4328  -21.4077 N   0  0  0  0  0  0  0  0  0  0  0  0
    4.0787   -6.0474  -24.2095 C   0  0  0  0  0  0  0  0  0  0  0  0
    5.0216   -5.5205  -23.2568 C   0  0  0  0  0  0  0  0  0  0  0  0
    4.8135   -4.2155  -22.6840 C   0  0  0  0  0  0  0  0  0  0  0  0
    5.7253   -3.7060  -21.7627 N   0  0  0  0  0  0  0  0  0  0  0  0
    6.2362   -6.3416  -22.8558 C   0  0  0  0  0  0  0  0  0  0  0  0
    5.8569   -9.3400  -27.0785 C   0  0  0  0  0  0  0  0  0  0  0  0
    6.6489  -10.2722  -27.8387 C   0  0  0  0  0  0  0  0  0  0  0  0
    6.9626   -8.1888  -26.1084 C   0  0  0  0  0  0  0  0  0  0  0  0
    6.3368   -7.3137  -25.1508 C   0  0  0  0  0  0  0  0  0  0  0  0
    6.8619   -7.2167  -23.8134 C   0  0  0  0  0  0  0  0  0  0  0  0
    8.1772   -9.0098  -25.7073 C   0  0  0  0  0  0  0  0  0  0  0  0
    8.6569   -8.9213  -24.4854 N   0  0  0  0  0  0  0  0  0  0  0  0
    8.0616   -8.0889  -23.5746 O   0  0  0  0  0  0  0  0  0  0  0  0
    8.8376   -9.9334  -26.7180 C   0  0  0  0  0  0  0  0  0  0  0  0
    7.8319  -10.9713  -27.1889 C   0  0  0  0  0  0  0  0  0  0  0  0
    8.4262   -8.0215  -22.6459 H   0  0  0  0  0  0  0  0  0  0  0  0
    8.5038   -3.3333  -23.8130 C   0  0  0  0  0  0  0  0  0  0  0  0
    8.9344   -4.5506  -23.0109 C   0  0  0  0  0  0  0  0  0  0  0  0
    6.1835   -3.4541  -18.6358 C   0  0  0  0  0  0  0  0  0  0  0  0
    7.5020   -4.1003  -19.0282 C   0  0  0  0  0  0  0  0  0  0  0  0
    7.7300   -3.9133  -20.4683 N   0  0  0  0  0  0  0  0  0  0  0  0
    8.9203   -3.1884  -20.9360 C   0  0  0  0  0  0  0  0  0  0  0  0
    9.7580   -4.1033  -21.8143 C   0  0  0  0  0  0  0  0  0  0  0  0
    3.5989   -3.3944  -23.0852 C   0  0  0  0  0  0  0  0  0  0  0  0
    0.7892   -1.5564  -21.4607 C   0  0  0  0  0  0  0  0  0  0  0  0
    1.0774   -1.7826  -20.0678 C   0  0  0  0  0  0  0  0  0  0  0  0
    2.1903   -2.5350  -19.7003 N   0  0  0  0  0  0  0  0  0  0  0  0
    3.0246   -3.0687  -20.6796 C   0  0  0  0  0  0  0  0  0  0  0  0
    2.7363   -2.8425  -22.0724 C   0  0  0  0  0  0  0  0  0  0  0  0
 18 19  1  0  0  0
 19 20  1  0  0  0
 20 21  1  0  0  0
 21 22  1  0  0  0
 22 23  1  0  0  0
 23 24  1  0  0  0
 19 24  1  0  0  0
 22  1  1  0  0  0
  1  2  1  0  0  0
  2  3  2  0  0  0
  3  4  1  0  0  0
  4  5  2  0  0  0
  1  5  1  0  0  0
  4 25  1  0  0  0
 25 26  2  0  0  0
 26 27  1  0  0  0
 27 28  2  0  0  0
 28 29  1  0  0  0
 29 30  2  0  0  0
 25 30  1  0  0  0
  3  6  1  0  0  0
  6  7  2  0  0  0
  7  8  1  0  0  0
  8  9  2  0  0  0
  9 10  1  0  0  0
 10 11  2  0  0  0
  6 11  1  0  0  0
  9 12  1  0  0  0
 12 13  2  0  0  0
 13 14  1  0  0  0
 12 15  1  0  0  0
 15 16  1  0  0  0
  8 16  1  0  0  0
 14 17  1  0  0  0
M  END
> <minimizedAffinity>
-7.20693

$$$$
mol_135927350_4


 30 34  0  0  0  0  0  0  0  0999 V2000
    5.9561   -5.1655  -24.9693 N   0  0  0  0  0  0  0  0  0  0  0  0
    2.3309   -6.8144  -23.5538 C   0  0  0  0  0  0  0  0  0  0  0  0
    3.5761   -6.2784  -24.0402 C   0  0  0  0  0  0  0  0  0  0  0  0
    3.7678   -4.8527  -24.1103 C   0  0  0  0  0  0  0  0  0  0  0  0
    4.9720   -4.3344  -24.5806 N   0  0  0  0  0  0  0  0  0  0  0  0
    4.6877   -7.2173  -24.4793 C   0  0  0  0  0  0  0  0  0  0  0  0
    1.9577   -8.8598  -28.5799 C   0  0  0  0  0  0  0  0  0  0  0  0
    2.1565   -9.5576  -29.8240 C   0  0  0  0  0  0  0  0  0  0  0  0
    3.5542   -8.0713  -28.0156 C   0  0  0  0  0  0  0  0  0  0  0  0
    3.5809   -7.4901  -26.6981 C   0  0  0  0  0  0  0  0  0  0  0  0
    4.6610   -7.7986  -25.7968 C   0  0  0  0  0  0  0  0  0  0  0  0
    4.6659   -9.0102  -28.4547 C   0  0  0  0  0  0  0  0  0  0  0  0
    5.6526   -9.2921  -27.6313 N   0  0  0  0  0  0  0  0  0  0  0  0
    5.6779   -8.7392  -26.3781 O   0  0  0  0  0  0  0  0  0  0  0  0
    4.6377   -9.6236  -29.8452 C   0  0  0  0  0  0  0  0  0  0  0  0
    3.3727  -10.4504  -30.0087 C   0  0  0  0  0  0  0  0  0  0  0  0
    6.4279   -8.9534  -25.7522 H   0  0  0  0  0  0  0  0  0  0  0  0
    7.3998   -6.4795  -22.5025 C   0  0  0  0  0  0  0  0  0  0  0  0
    7.1479   -4.9828  -22.5851 C   0  0  0  0  0  0  0  0  0  0  0  0
    6.6968   -4.6874  -27.8407 C   0  0  0  0  0  0  0  0  0  0  0  0
    7.2090   -3.8428  -26.6855 C   0  0  0  0  0  0  0  0  0  0  0  0
    7.1838   -4.6370  -25.4488 N   0  0  0  0  0  0  0  0  0  0  0  0
    8.4294   -4.8842  -24.7085 C   0  0  0  0  0  0  0  0  0  0  0  0
    8.3067   -4.3130  -23.3053 C   0  0  0  0  0  0  0  0  0  0  0  0
    2.6561   -3.9138  -23.6712 C   0  0  0  0  0  0  0  0  0  0  0  0
    1.8317   -1.6870  -20.7948 C   0  0  0  0  0  0  0  0  0  0  0  0
    2.9840   -1.8820  -19.9531 C   0  0  0  0  0  0  0  0  0  0  0  0
    4.0027   -2.7424  -20.3554 N   0  0  0  0  0  0  0  0  0  0  0  0
    3.9072   -3.4142  -21.5718 C   0  0  0  0  0  0  0  0  0  0  0  0
    2.7549   -3.2191  -22.4135 C   0  0  0  0  0  0  0  0  0  0  0  0
 18 19  1  0  0  0
 19 20  1  0  0  0
 20 21  1  0  0  0
 21 22  1  0  0  0
 22 23  1  0  0  0
 23 24  1  0  0  0
 19 24  1  0  0  0
 22  1  1  0  0  0
  1  2  1  0  0  0
  2  3  2  0  0  0
  3  4  1  0  0  0
  4  5  2  0  0  0
  1  5  1  0  0  0
  4 25  1  0  0  0
 25 26  2  0  0  0
 26 27  1  0  0  0
 27 28  2  0  0  0
 28 29  1  0  0  0
 29 30  2  0  0  0
 25 30  1  0  0  0
  3  6  1  0  0  0
  6  7  2  0  0  0
  7  8  1  0  0  0
  8  9  2  0  0  0
  9 10  1  0  0  0
 10 11  2  0  0  0
  6 11  1  0  0  0
  9 12  1  0  0  0
 12 13  2  0  0  0
 13 14  1  0  0  0
 12 15  1  0  0  0
 15 16  1  0  0  0
  8 16  1  0  0  0
 14 17  1  0  0  0
M  END
> <minimizedAffinity>
-7.14358

$$$$
mol_91896025_5


 30 34  0  0  0  0  0  0  0  0999 V2000
    6.2705   -5.2711  -23.5002 N   0  0  0  0  0  0  0  0  0  0  0  0
    2.2313   -4.3062  -24.2863 C   0  0  0  0  0  0  0  0  0  0  0  0
    3.6132   -4.6078  -24.0150 C   0  0  0  0  0  0  0  0  0  0  0  0
    4.0680   -5.9742  -24.0280 C   0  0  0  0  0  0  0  0  0  0  0  0
    5.4044   -6.2658  -23.7657 N   0  0  0  0  0  0  0  0  0  0  0  0
    4.5916   -3.4839  -23.7151 C   0  0  0  0  0  0  0  0  0  0  0  0
    2.3356   -2.4638  -19.1505 C   0  0  0  0  0  0  0  0  0  0  0  0
    2.6094   -1.7643  -17.9217 C   0  0  0  0  0  0  0  0  0  0  0  0
    3.9317   -2.9256  -20.0040 C   0  0  0  0  0  0  0  0  0  0  0  0
    3.8426   -3.4667  -21.3358 C   0  0  0  0  0  0  0  0  0  0  0  0
    4.6806   -2.9429  -22.3834 C   0  0  0  0  0  0  0  0  0  0  0  0
    4.9102   -1.8017  -19.7042 C   0  0  0  0  0  0  0  0  0  0  0  0
    5.6756   -1.3232  -20.6613 N   0  0  0  0  0  0  0  0  0  0  0  0
    5.5910   -1.8379  -21.9280 O   0  0  0  0  0  0  0  0  0  0  0  0
    5.0041   -1.2307  -18.2986 C   0  0  0  0  0  0  0  0  0  0  0  0
    3.6548   -0.6612  -17.8918 C   0  0  0  0  0  0  0  0  0  0  0  0
    6.1728   -1.4742  -22.6554 H   0  0  0  0  0  0  0  0  0  0  0  0
    7.0217   -3.9570  -26.2579 C   0  0  0  0  0  0  0  0  0  0  0  0
    7.0356   -5.4631  -26.0530 C   0  0  0  0  0  0  0  0  0  0  0  0
    7.5751   -5.4001  -20.7977 C   0  0  0  0  0  0  0  0  0  0  0  0
    8.0056   -6.2479  -21.9836 C   0  0  0  0  0  0  0  0  0  0  0  0
    7.6331   -5.5684  -23.2328 N   0  0  0  0  0  0  0  0  0  0  0  0
    8.6710   -5.1965  -24.2049 C   0  0  0  0  0  0  0  0  0  0  0  0
    8.3969   -5.8906  -25.5292 C   0  0  0  0  0  0  0  0  0  0  0  0
    3.0895   -7.0981  -24.3279 C   0  0  0  0  0  0  0  0  0  0  0  0
    2.0131   -9.1876  -27.2239 C   0  0  0  0  0  0  0  0  0  0  0  0
    2.8488   -8.6615  -28.2723 C   0  0  0  0  0  0  0  0  0  0  0  0
    3.7453   -7.6317  -27.9974 N   0  0  0  0  0  0  0  0  0  0  0  0
    3.8338   -7.1106  -26.7087 C   0  0  0  0  0  0  0  0  0  0  0  0
    2.9982   -7.6369  -25.6605 C   0  0  0  0  0  0  0  0  0  0  0  0
 18 19  1  0  0  0
 19 20  1  0  0  0
 20 21  1  0  0  0
 21 22  1  0  0  0
 22 23  1  0  0  0
 23 24  1  0  0  0
 19 24  1  0  0  0
 22  1  1  0  0  0
  1  2  1  0  0  0
  2  3  2  0  0  0
  3  4  1  0  0  0
  4  5  2  0  0  0
  1  5  1  0  0  0
  4 25  1  0  0  0
 25 26  2  0  0  0
 26 27  1  0  0  0
 27 28  2  0  0  0
 28 29  1  0  0  0
 29 30  2  0  0  0
 25 30  1  0  0  0
  3  6  1  0  0  0
  6  7  2  0  0  0
  7  8  1  0  0  0
  8  9  2  0  0  0
  9 10  1  0  0  0
 10 11  2  0  0  0
  6 11  1  0  0  0
  9 12  1  0  0  0
 12 13  2  0  0  0
 13 14  1  0  0  0
 12 15  1  0  0  0
 15 16  1  0  0  0
  8 16  1  0  0  0
 14 17  1  0  0  0
M  END
> <minimizedAffinity>
-7.91033

$$$$
mol_91896025_5


 30 34  0  0  0  0  0  0  0  0999 V2000
    6.3590   -5.6229  -23.8316 N   0  0  0  0  0  0  0  0  0  0  0  0
    2.2818   -5.9664  -24.8914 C   0  0  0  0  0  0  0  0  0  0  0  0
    3.6664   -5.8232  -24.5217 C   0  0  0  0  0  0  0  0  0  0  0  0
    4.5805   -6.9191  -24.7153 C   0  0  0  0  0  0  0  0  0  0  0  0
    5.9195   -6.7805  -24.3578 N   0  0  0  0  0  0  0  0  0  0  0  0
    4.1628   -4.5153  -23.9272 C   0  0  0  0  0  0  0  0  0  0  0  0
   -0.5543   -3.3100  -22.1212 C   0  0  0  0  0  0  0  0  0  0  0  0
   -1.1737   -2.4164  -21.1768 C   0  0  0  0  0  0  0  0  0  0  0  0
    1.2357   -3.5937  -21.6686 C   0  0  0  0  0  0  0  0  0  0  0  0
    2.0546   -4.3140  -22.6092 C   0  0  0  0  0  0  0  0  0  0  0  0
    3.3439   -3.7950  -22.9866 C   0  0  0  0  0  0  0  0  0  0  0  0
    1.7322   -2.2858  -21.0741 C   0  0  0  0  0  0  0  0  0  0  0  0
    2.9100   -1.8117  -21.4190 N   0  0  0  0  0  0  0  0  0  0  0  0
    3.6890   -2.4969  -22.3137 O   0  0  0  0  0  0  0  0  0  0  0  0
    0.8678   -1.5256  -20.0814 C   0  0  0  0  0  0  0  0  0  0  0  0
   -0.4509   -1.1529  -20.7391 C   0  0  0  0  0  0  0  0  0  0  0  0
    4.5843   -2.1366  -22.5757 H   0  0  0  0  0  0  0  0  0  0  0  0
    6.7393   -3.6971  -26.2897 C   0  0  0  0  0  0  0  0  0  0  0  0
    7.2696   -5.1216  -26.2930 C   0  0  0  0  0  0  0  0  0  0  0  0
    7.4890   -5.7463  -21.0514 C   0  0  0  0  0  0  0  0  0  0  0  0
    8.2480   -6.1910  -22.2910 C   0  0  0  0  0  0  0  0  0  0  0  0
    7.7241   -5.4815  -23.4671 N   0  0  0  0  0  0  0  0  0  0  0  0
    8.6133   -4.6258  -24.2657 C   0  0  0  0  0  0  0  0  0  0  0  0
    8.6664   -5.1435  -25.6939 C   0  0  0  0  0  0  0  0  0  0  0  0
    4.0840   -8.2269  -25.3098 C   0  0  0  0  0  0  0  0  0  0  0  0
    3.8312   -9.8807  -28.6434 C   0  0  0  0  0  0  0  0  0  0  0  0
    4.4044   -8.8731  -29.4979 C   0  0  0  0  0  0  0  0  0  0  0  0
    4.8594   -7.6747  -28.9531 N   0  0  0  0  0  0  0  0  0  0  0  0
    4.7600   -7.4507  -27.5820 C   0  0  0  0  0  0  0  0  0  0  0  0
    4.1868   -8.4585  -26.7276 C   0  0  0  0  0  0  0  0  0  0  0  0
 18 19  1  0  0  0
 19 20  1  0  0  0
 20 21  1  0  0  0
 21 22  1  0  0  0
 22 23  1  0  0  0
 23 24  1  0  0  0
 19 24  1  0  0  0
 22  1  1  0  0  0
  1  2  1  0  0  0
  2  3  2  0  0  0
  3  4  1  0  0  0
  4  5  2  0  0  0
  1  5  1  0  0  0
  4 25  1  0  0  0
 25 26  2  0  0  0
 26 27  1  0  0  0
 27 28  2  0  0  0
 28 29  1  0  0  0
 29 30  2  0  0  0
 25 30  1  0  0  0
  3  6  1  0  0  0
  6  7  2  0  0  0
  7  8  1  0  0  0
  8  9  2  0  0  0
  9 10  1  0  0  0
 10 11  2  0  0  0
  6 11  1  0  0  0
  9 12  1  0  0  0
 12 13  2  0  0  0
 13 14  1  0  0  0
 12 15  1  0  0  0
 15 16  1  0  0  0
  8 16  1  0  0  0
 14 17  1  0  0  0
M  END
> <minimizedAffinity>
-7.42141

$$$$
mol_91896025_5


 30 34  0  0  0  0  0  0  0  0999 V2000
    6.7911   -4.1884  -21.3469 N   0  0  0  0  0  0  0  0  0  0  0  0
    4.7456   -5.2730  -24.8829 C   0  0  0  0  0  0  0  0  0  0  0  0
    5.4329   -4.8773  -23.6807 C   0  0  0  0  0  0  0  0  0  0  0  0
    6.2171   -5.8391  -22.9498 C   0  0  0  0  0  0  0  0  0  0  0  0
    6.8817   -5.4564  -21.7872 N   0  0  0  0  0  0  0  0  0  0  0  0
    5.3304   -3.4447  -23.1833 C   0  0  0  0  0  0  0  0  0  0  0  0
    0.2168   -3.8715  -22.3871 C   0  0  0  0  0  0  0  0  0  0  0  0
   -0.8460   -3.1977  -21.6866 C   0  0  0  0  0  0  0  0  0  0  0  0
    1.8646   -3.4779  -21.6003 C   0  0  0  0  0  0  0  0  0  0  0  0
    3.0522   -3.9193  -22.2851 C   0  0  0  0  0  0  0  0  0  0  0  0
    4.1428   -3.0033  -22.4985 C   0  0  0  0  0  0  0  0  0  0  0  0
    1.7623   -2.0452  -21.1028 C   0  0  0  0  0  0  0  0  0  0  0  0
    2.7586   -1.2084  -21.2979 N   0  0  0  0  0  0  0  0  0  0  0  0
    3.8883   -1.6283  -21.9492 O   0  0  0  0  0  0  0  0  0  0  0  0
    0.5088   -1.5793  -20.3802 C   0  0  0  0  0  0  0  0  0  0  0  0
   -0.6930   -1.7363  -21.2976 C   0  0  0  0  0  0  0  0  0  0  0  0
    4.6456   -0.9923  -22.0975 H   0  0  0  0  0  0  0  0  0  0  0  0
    8.9985   -2.8434  -23.1397 C   0  0  0  0  0  0  0  0  0  0  0  0
    9.2429   -4.1533  -22.4084 C   0  0  0  0  0  0  0  0  0  0  0  0
    5.5306   -3.5311  -18.7010 C   0  0  0  0  0  0  0  0  0  0  0  0
    6.9116   -4.1489  -18.8472 C   0  0  0  0  0  0  0  0  0  0  0  0
    7.4688   -3.7982  -20.1615 N   0  0  0  0  0  0  0  0  0  0  0  0
    8.7272   -3.0435  -20.2488 C   0  0  0  0  0  0  0  0  0  0  0  0
    9.7579   -3.8632  -21.0080 C   0  0  0  0  0  0  0  0  0  0  0  0
    6.3194   -7.2717  -23.4474 C   0  0  0  0  0  0  0  0  0  0  0  0
    8.6486   -9.3924  -25.4448 C   0  0  0  0  0  0  0  0  0  0  0  0
    9.6880   -8.4457  -25.7571 C   0  0  0  0  0  0  0  0  0  0  0  0
    9.5942   -7.1329  -25.3013 N   0  0  0  0  0  0  0  0  0  0  0  0
    8.4952   -6.7357  -24.5433 C   0  0  0  0  0  0  0  0  0  0  0  0
    7.4559   -7.6825  -24.2310 C   0  0  0  0  0  0  0  0  0  0  0  0
 18 19  1  0  0  0
 19 20  1  0  0  0
 20 21  1  0  0  0
 21 22  1  0  0  0
 22 23  1  0  0  0
 23 24  1  0  0  0
 19 24  1  0  0  0
 22  1  1  0  0  0
  1  2  1  0  0  0
  2  3  2  0  0  0
  3  4  1  0  0  0
  4  5  2  0  0  0
  1  5  1  0  0  0
  4 25  1  0  0  0
 25 26  2  0  0  0
 26 27  1  0  0  0
 27 28  2  0  0  0
 28 29  1  0  0  0
 29 30  2  0  0  0
 25 30  1  0  0  0
  3  6  1  0  0  0
  6  7  2  0  0  0
  7  8  1  0  0  0
  8  9  2  0  0  0
  9 10  1  0  0  0
 10 11  2  0  0  0
  6 11  1  0  0  0
  9 12  1  0  0  0
 12 13  2  0  0  0
 13 14  1  0  0  0
 12 15  1  0  0  0
 15 16  1  0  0  0
  8 16  1  0  0  0
 14 17  1  0  0  0
M  END
> <minimizedAffinity>
-7.14512

$$$$
mol_91896025_5


 30 34  0  0  0  0  0  0  0  0999 V2000
    5.8899   -5.2115  -25.0713 N   0  0  0  0  0  0  0  0  0  0  0  0
    2.3370   -6.8828  -23.5064 C   0  0  0  0  0  0  0  0  0  0  0  0
    3.5577   -6.3391  -24.0436 C   0  0  0  0  0  0  0  0  0  0  0  0
    3.7298   -4.9124  -24.1394 C   0  0  0  0  0  0  0  0  0  0  0  0
    4.9102   -4.3867  -24.6589 N   0  0  0  0  0  0  0  0  0  0  0  0
    4.6644   -7.2711  -24.5095 C   0  0  0  0  0  0  0  0  0  0  0  0
    1.8783   -8.8709  -28.5892 C   0  0  0  0  0  0  0  0  0  0  0  0
    2.0603   -9.5540  -29.8440 C   0  0  0  0  0  0  0  0  0  0  0  0
    3.4816   -8.0862  -28.0388 C   0  0  0  0  0  0  0  0  0  0  0  0
    3.5263   -7.5201  -26.7152 C   0  0  0  0  0  0  0  0  0  0  0  0
    4.6197   -7.8371  -25.8330 C   0  0  0  0  0  0  0  0  0  0  0  0
    4.5884   -9.0181  -28.5046 C   0  0  0  0  0  0  0  0  0  0  0  0
    5.5871   -9.3077  -27.6987 N   0  0  0  0  0  0  0  0  0  0  0  0
    5.6297   -8.7693  -26.4397 O   0  0  0  0  0  0  0  0  0  0  0  0
    4.5411   -9.6156  -29.9015 C   0  0  0  0  0  0  0  0  0  0  0  0
    3.2752  -10.4425  -30.0564 C   0  0  0  0  0  0  0  0  0  0  0  0
    6.3889   -8.9893  -25.8271 H   0  0  0  0  0  0  0  0  0  0  0  0
    7.4407   -6.5063  -22.6599 C   0  0  0  0  0  0  0  0  0  0  0  0
    7.1744   -5.0117  -22.7369 C   0  0  0  0  0  0  0  0  0  0  0  0
    6.5118   -4.7376  -27.9713 C   0  0  0  0  0  0  0  0  0  0  0  0
    7.0633   -3.8852  -26.8400 C   0  0  0  0  0  0  0  0  0  0  0  0
    7.0935   -4.6755  -25.6009 N   0  0  0  0  0  0  0  0  0  0  0  0
    8.3695   -4.9109  -24.9102 C   0  0  0  0  0  0  0  0  0  0  0  0
    8.2986   -4.3358  -23.5049 C   0  0  0  0  0  0  0  0  0  0  0  0
    2.6230   -3.9805  -23.6735 C   0  0  0  0  0  0  0  0  0  0  0  0
    1.8783   -1.7174  -20.8037 C   0  0  0  0  0  0  0  0  0  0  0  0
    3.0640   -1.8840  -20.0033 C   0  0  0  0  0  0  0  0  0  0  0  0
    4.0781   -2.7379  -20.4302 N   0  0  0  0  0  0  0  0  0  0  0  0
    3.9457   -3.4308  -21.6312 C   0  0  0  0  0  0  0  0  0  0  0  0
    2.7600   -3.2641  -22.4316 C   0  0  0  0  0  0  0  0  0  0  0  0
 18 19  1  0  0  0
 19 20  1  0  0  0
 20 21  1  0  0  0
 21 22  1  0  0  0
 22 23  1  0  0  0
 23 24  1  0  0  0
 19 24  1  0  0  0
 22  1  1  0  0  0
  1  2  1  0  0  0
  2  3  2  0  0  0
  3  4  1  0  0  0
  4  5  2  0  0  0
  1  5  1  0  0  0
  4 25  1  0  0  0
 25 26  2  0  0  0
 26 27  1  0  0  0
 27 28  2  0  0  0
 28 29  1  0  0  0
 29 30  2  0  0  0
 25 30  1  0  0  0
  3  6  1  0  0  0
  6  7  2  0  0  0
  7  8  1  0  0  0
  8  9  2  0  0  0
  9 10  1  0  0  0
 10 11  2  0  0  0
  6 11  1  0  0  0
  9 12  1  0  0  0
 12 13  2  0  0  0
 13 14  1  0  0  0
 12 15  1  0  0  0
 15 16  1  0  0  0
  8 16  1  0  0  0
 14 17  1  0  0  0
M  END
> <minimizedAffinity>
-7.11194

$$$$
mol_91896025_5


 30 34  0  0  0  0  0  0  0  0999 V2000
    7.0115   -4.6465  -24.0123 N   0  0  0  0  0  0  0  0  0  0  0  0
    3.2718   -6.5954  -23.7269 C   0  0  0  0  0  0  0  0  0  0  0  0
    4.5587   -5.9562  -23.8255 C   0  0  0  0  0  0  0  0  0  0  0  0
    4.6517   -4.5191  -23.8149 C   0  0  0  0  0  0  0  0  0  0  0  0
    5.8962   -3.9011  -23.9102 N   0  0  0  0  0  0  0  0  0  0  0  0
    5.8187   -6.7986  -23.9409 C   0  0  0  0  0  0  0  0  0  0  0  0
    3.8514   -9.5698  -27.8671 C   0  0  0  0  0  0  0  0  0  0  0  0
    4.2891  -10.4614  -28.9101 C   0  0  0  0  0  0  0  0  0  0  0  0
    5.2597   -8.4723  -27.3180 C   0  0  0  0  0  0  0  0  0  0  0  0
    5.0480   -7.6483  -26.1559 C   0  0  0  0  0  0  0  0  0  0  0  0
    6.0303   -7.6225  -25.1030 C   0  0  0  0  0  0  0  0  0  0  0  0
    6.5197   -9.3146  -27.4333 C   0  0  0  0  0  0  0  0  0  0  0  0
    7.4170   -9.2910  -26.4714 N   0  0  0  0  0  0  0  0  0  0  0  0
    7.2157   -8.5072  -25.3660 O   0  0  0  0  0  0  0  0  0  0  0  0
    6.7430  -10.1842  -28.6598 C   0  0  0  0  0  0  0  0  0  0  0  0
    5.6137  -11.1949  -28.7768 C   0  0  0  0  0  0  0  0  0  0  0  0
    7.8977   -8.4892  -24.6348 H   0  0  0  0  0  0  0  0  0  0  0  0
    7.7164   -5.7934  -21.1691 C   0  0  0  0  0  0  0  0  0  0  0  0
    7.3822   -4.3265  -21.3856 C   0  0  0  0  0  0  0  0  0  0  0  0
    8.5685   -4.1415  -26.5308 C   0  0  0  0  0  0  0  0  0  0  0  0
    8.6250   -3.2393  -25.3087 C   0  0  0  0  0  0  0  0  0  0  0  0
    8.2803   -4.0164  -24.1095 N   0  0  0  0  0  0  0  0  0  0  0  0
    9.2491   -4.1413  -23.0111 C   0  0  0  0  0  0  0  0  0  0  0  0
    8.6495   -3.5650  -21.7387 C   0  0  0  0  0  0  0  0  0  0  0  0
    3.3916   -3.6769  -23.6995 C   0  0  0  0  0  0  0  0  0  0  0  0
    1.5323   -1.7433  -21.1080 C   0  0  0  0  0  0  0  0  0  0  0  0
    2.3680   -1.9507  -19.9535 C   0  0  0  0  0  0  0  0  0  0  0  0
    3.5226   -2.7225  -20.0592 N   0  0  0  0  0  0  0  0  0  0  0  0
    3.8691   -3.2937  -21.2814 C   0  0  0  0  0  0  0  0  0  0  0  0
    3.0334   -3.0862  -22.4358 C   0  0  0  0  0  0  0  0  0  0  0  0
 18 19  1  0  0  0
 19 20  1  0  0  0
 20 21  1  0  0  0
 21 22  1  0  0  0
 22 23  1  0  0  0
 23 24  1  0  0  0
 19 24  1  0  0  0
 22  1  1  0  0  0
  1  2  1  0  0  0
  2  3  2  0  0  0
  3  4  1  0  0  0
  4  5  2  0  0  0
  1  5  1  0  0  0
  4 25  1  0  0  0
 25 26  2  0  0  0
 26 27  1  0  0  0
 27 28  2  0  0  0
 28 29  1  0  0  0
 29 30  2  0  0  0
 25 30  1  0  0  0
  3  6  1  0  0  0
  6  7  2  0  0  0
  7  8  1  0  0  0
  8  9  2  0  0  0
  9 10  1  0  0  0
 10 11  2  0  0  0
  6 11  1  0  0  0
  9 12  1  0  0  0
 12 13  2  0  0  0
 13 14  1  0  0  0
 12 15  1  0  0  0
 15 16  1  0  0  0
  8 16  1  0  0  0
 14 17  1  0  0  0
M  END
> <minimizedAffinity>
-7.02635

$$$$
mol_91896028_6


 30 34  0  0  0  0  0  0  0  0999 V2000
    6.2540   -5.2828  -23.5391 N   0  0  0  0  0  0  0  0  0  0  0  0
    2.2111   -4.2971  -24.2796 C   0  0  0  0  0  0  0  0  0  0  0  0
    3.5944   -4.6058  -24.0237 C   0  0  0  0  0  0  0  0  0  0  0  0
    4.0443   -5.9736  -24.0531 C   0  0  0  0  0  0  0  0  0  0  0  0
    5.3821   -6.2721  -23.8057 N   0  0  0  0  0  0  0  0  0  0  0  0
    4.5794   -3.4880  -23.7225 C   0  0  0  0  0  0  0  0  0  0  0  0
    2.3227   -2.4532  -19.1615 C   0  0  0  0  0  0  0  0  0  0  0  0
    2.5989   -1.7553  -17.9324 C   0  0  0  0  0  0  0  0  0  0  0  0
    3.9171   -2.9252  -20.0126 C   0  0  0  0  0  0  0  0  0  0  0  0
    3.8268   -3.4659  -21.3444 C   0  0  0  0  0  0  0  0  0  0  0  0
    4.6697   -2.9473  -22.3907 C   0  0  0  0  0  0  0  0  0  0  0  0
    4.9022   -1.8074  -19.7112 C   0  0  0  0  0  0  0  0  0  0  0  0
    5.6721   -1.3337  -20.6671 N   0  0  0  0  0  0  0  0  0  0  0  0
    5.5862   -1.8480  -21.9340 O   0  0  0  0  0  0  0  0  0  0  0  0
    4.9975   -1.2367  -18.3057 C   0  0  0  0  0  0  0  0  0  0  0  0
    3.6511   -0.6588  -17.9010 C   0  0  0  0  0  0  0  0  0  0  0  0
    6.1715   -1.4880  -22.6606 H   0  0  0  0  0  0  0  0  0  0  0  0
    6.9847   -3.9469  -26.2919 C   0  0  0  0  0  0  0  0  0  0  0  0
    6.9951   -5.4547  -26.1004 C   0  0  0  0  0  0  0  0  0  0  0  0
    7.5827   -5.4403  -20.8500 C   0  0  0  0  0  0  0  0  0  0  0  0
    7.9993   -6.2790  -22.0471 C   0  0  0  0  0  0  0  0  0  0  0  0
    7.6179   -5.5871  -23.2868 N   0  0  0  0  0  0  0  0  0  0  0  0
    8.6483   -5.2103  -24.2651 C   0  0  0  0  0  0  0  0  0  0  0  0
    8.3596   -5.8917  -25.5929 C   0  0  0  0  0  0  0  0  0  0  0  0
    3.0594   -7.0914  -24.3544 C   0  0  0  0  0  0  0  0  0  0  0  0
    1.9776   -9.1777  -27.2508 C   0  0  0  0  0  0  0  0  0  0  0  0
    2.8198   -8.6585  -28.2973 C   0  0  0  0  0  0  0  0  0  0  0  0
    3.7225   -7.6344  -28.0212 N   0  0  0  0  0  0  0  0  0  0  0  0
    3.8106   -7.1122  -26.7330 C   0  0  0  0  0  0  0  0  0  0  0  0
    2.9683   -7.6313  -25.6865 C   0  0  0  0  0  0  0  0  0  0  0  0
 18 19  1  0  0  0
 19 20  1  0  0  0
 20 21  1  0  0  0
 21 22  1  0  0  0
 22 23  1  0  0  0
 23 24  1  0  0  0
 19 24  1  0  0  0
 22  1  1  0  0  0
  1  2  1  0  0  0
  2  3  2  0  0  0
  3  4  1  0  0  0
  4  5  2  0  0  0
  1  5  1  0  0  0
  4 25  1  0  0  0
 25 26  2  0  0  0
 26 27  1  0  0  0
 27 28  2  0  0  0
 28 29  1  0  0  0
 29 30  2  0  0  0
 25 30  1  0  0  0
  3  6  1  0  0  0
  6  7  2  0  0  0
  7  8  1  0  0  0
  8  9  2  0  0  0
  9 10  1  0  0  0
 10 11  2  0  0  0
  6 11  1  0  0  0
  9 12  1  0  0  0
 12 13  2  0  0  0
 13 14  1  0  0  0
 12 15  1  0  0  0
 15 16  1  0  0  0
  8 16  1  0  0  0
 14 17  1  0  0  0
M  END
> <minimizedAffinity>
-7.89215

$$$$
mol_91896028_6


 30 34  0  0  0  0  0  0  0  0999 V2000
    6.3625   -5.6240  -23.8332 N   0  0  0  0  0  0  0  0  0  0  0  0
    2.2862   -5.9620  -24.8980 C   0  0  0  0  0  0  0  0  0  0  0  0
    3.6704   -5.8206  -24.5267 C   0  0  0  0  0  0  0  0  0  0  0  0
    4.5830   -6.9183  -24.7178 C   0  0  0  0  0  0  0  0  0  0  0  0
    5.9218   -6.7815  -24.3586 N   0  0  0  0  0  0  0  0  0  0  0  0
    4.1683   -4.5129  -23.9329 C   0  0  0  0  0  0  0  0  0  0  0  0
   -0.5465   -3.3042  -22.1231 C   0  0  0  0  0  0  0  0  0  0  0  0
   -1.1646   -2.4100  -21.1784 C   0  0  0  0  0  0  0  0  0  0  0  0
    1.2436   -3.5890  -21.6721 C   0  0  0  0  0  0  0  0  0  0  0  0
    2.0613   -4.3100  -22.6132 C   0  0  0  0  0  0  0  0  0  0  0  0
    3.3506   -3.7918  -22.9918 C   0  0  0  0  0  0  0  0  0  0  0  0
    1.7414   -2.2813  -21.0783 C   0  0  0  0  0  0  0  0  0  0  0  0
    2.9192   -1.8080  -21.4242 N   0  0  0  0  0  0  0  0  0  0  0  0
    3.6971   -2.4939  -22.3195 O   0  0  0  0  0  0  0  0  0  0  0  0
    0.8785   -1.5203  -20.0850 C   0  0  0  0  0  0  0  0  0  0  0  0
   -0.4405   -1.1470  -20.7417 C   0  0  0  0  0  0  0  0  0  0  0  0
    4.5923   -2.1341  -22.5824 H   0  0  0  0  0  0  0  0  0  0  0  0
    6.7489   -3.6999  -26.2918 C   0  0  0  0  0  0  0  0  0  0  0  0
    7.2770   -5.1253  -26.2937 C   0  0  0  0  0  0  0  0  0  0  0  0
    7.4888   -5.7478  -21.0515 C   0  0  0  0  0  0  0  0  0  0  0  0
    8.2486   -6.1942  -22.2898 C   0  0  0  0  0  0  0  0  0  0  0  0
    7.7274   -5.4846  -23.4670 N   0  0  0  0  0  0  0  0  0  0  0  0
    8.6190   -4.6307  -24.2649 C   0  0  0  0  0  0  0  0  0  0  0  0
    8.6730   -5.1492  -25.6928 C   0  0  0  0  0  0  0  0  0  0  0  0
    4.0852   -8.2259  -25.3115 C   0  0  0  0  0  0  0  0  0  0  0  0
    3.8263   -9.8793  -28.6448 C   0  0  0  0  0  0  0  0  0  0  0  0
    4.3983   -8.8717  -29.5002 C   0  0  0  0  0  0  0  0  0  0  0  0
    4.8546   -7.6735  -28.9560 N   0  0  0  0  0  0  0  0  0  0  0  0
    4.7576   -7.4497  -27.5848 C   0  0  0  0  0  0  0  0  0  0  0  0
    4.1854   -8.4573  -26.7295 C   0  0  0  0  0  0  0  0  0  0  0  0
 18 19  1  0  0  0
 19 20  1  0  0  0
 20 21  1  0  0  0
 21 22  1  0  0  0
 22 23  1  0  0  0
 23 24  1  0  0  0
 19 24  1  0  0  0
 22  1  1  0  0  0
  1  2  1  0  0  0
  2  3  2  0  0  0
  3  4  1  0  0  0
  4  5  2  0  0  0
  1  5  1  0  0  0
  4 25  1  0  0  0
 25 26  2  0  0  0
 26 27  1  0  0  0
 27 28  2  0  0  0
 28 29  1  0  0  0
 29 30  2  0  0  0
 25 30  1  0  0  0
  3  6  1  0  0  0
  6  7  2  0  0  0
  7  8  1  0  0  0
  8  9  2  0  0  0
  9 10  1  0  0  0
 10 11  2  0  0  0
  6 11  1  0  0  0
  9 12  1  0  0  0
 12 13  2  0  0  0
 13 14  1  0  0  0
 12 15  1  0  0  0
 15 16  1  0  0  0
  8 16  1  0  0  0
 14 17  1  0  0  0
M  END
> <minimizedAffinity>
-7.42642

$$$$
mol_91896028_6


 30 34  0  0  0  0  0  0  0  0999 V2000
    4.5516   -5.7293  -24.3757 N   0  0  0  0  0  0  0  0  0  0  0  0
    8.6969   -4.9130  -24.2541 C   0  0  0  0  0  0  0  0  0  0  0  0
    7.2854   -5.1904  -24.3235 C   0  0  0  0  0  0  0  0  0  0  0  0
    6.5254   -5.3645  -23.1126 C   0  0  0  0  0  0  0  0  0  0  0  0
    5.1602   -5.6327  -23.1797 N   0  0  0  0  0  0  0  0  0  0  0  0
    6.5978   -5.2996  -25.6747 C   0  0  0  0  0  0  0  0  0  0  0  0
    8.3820  -10.1190  -26.4208 C   0  0  0  0  0  0  0  0  0  0  0  0
    8.1295  -11.2675  -27.2521 C   0  0  0  0  0  0  0  0  0  0  0  0
    6.8559   -9.0473  -26.3130 C   0  0  0  0  0  0  0  0  0  0  0  0
    6.9870   -7.7635  -25.6734 C   0  0  0  0  0  0  0  0  0  0  0  0
    6.4667   -6.5834  -26.3143 C   0  0  0  0  0  0  0  0  0  0  0  0
    6.1683   -9.1566  -27.6642 C   0  0  0  0  0  0  0  0  0  0  0  0
    5.6931   -8.0784  -28.2495 N   0  0  0  0  0  0  0  0  0  0  0  0
    5.8178   -6.8572  -27.6412 O   0  0  0  0  0  0  0  0  0  0  0  0
    6.0300  -10.5114  -28.3392 C   0  0  0  0  0  0  0  0  0  0  0  0
    7.4102  -11.1005  -28.5807 C   0  0  0  0  0  0  0  0  0  0  0  0
    5.4566   -6.0377  -28.0862 H   0  0  0  0  0  0  0  0  0  0  0  0
    4.0975   -2.7842  -25.3838 C   0  0  0  0  0  0  0  0  0  0  0  0
    3.7384   -3.2165  -23.9715 C   0  0  0  0  0  0  0  0  0  0  0  0
    3.2786   -8.3843  -24.9695 C   0  0  0  0  0  0  0  0  0  0  0  0
    2.6527   -7.3310  -24.0700 C   0  0  0  0  0  0  0  0  0  0  0  0
    3.1599   -6.0030  -24.4441 N   0  0  0  0  0  0  0  0  0  0  0  0
    2.2264   -4.9582  -24.8890 C   0  0  0  0  0  0  0  0  0  0  0  0
    2.3202   -3.7633  -23.9541 C   0  0  0  0  0  0  0  0  0  0  0  0
    7.2129   -5.2553  -21.7614 C   0  0  0  0  0  0  0  0  0  0  0  0
    7.5066   -2.8251  -18.9471 C   0  0  0  0  0  0  0  0  0  0  0  0
    6.6842   -1.7442  -19.4261 C   0  0  0  0  0  0  0  0  0  0  0  0
    6.0542   -1.8444  -20.6642 N   0  0  0  0  0  0  0  0  0  0  0  0
    6.2195   -2.9898  -21.4391 C   0  0  0  0  0  0  0  0  0  0  0  0
    7.0419   -4.0707  -20.9602 C   0  0  0  0  0  0  0  0  0  0  0  0
 18 19  1  0  0  0
 19 20  1  0  0  0
 20 21  1  0  0  0
 21 22  1  0  0  0
 22 23  1  0  0  0
 23 24  1  0  0  0
 19 24  1  0  0  0
 22  1  1  0  0  0
  1  2  1  0  0  0
  2  3  2  0  0  0
  3  4  1  0  0  0
  4  5  2  0  0  0
  1  5  1  0  0  0
  4 25  1  0  0  0
 25 26  2  0  0  0
 26 27  1  0  0  0
 27 28  2  0  0  0
 28 29  1  0  0  0
 29 30  2  0  0  0
 25 30  1  0  0  0
  3  6  1  0  0  0
  6  7  2  0  0  0
  7  8  1  0  0  0
  8  9  2  0  0  0
  9 10  1  0  0  0
 10 11  2  0  0  0
  6 11  1  0  0  0
  9 12  1  0  0  0
 12 13  2  0  0  0
 13 14  1  0  0  0
 12 15  1  0  0  0
 15 16  1  0  0  0
  8 16  1  0  0  0
 14 17  1  0  0  0
M  END
> <minimizedAffinity>
-7.38869

$$$$
mol_91896028_6


 30 34  0  0  0  0  0  0  0  0999 V2000
    6.0543   -5.3138  -23.6746 N   0  0  0  0  0  0  0  0  0  0  0  0
    2.9897   -3.4614  -25.9200 C   0  0  0  0  0  0  0  0  0  0  0  0
    4.0529   -4.0774  -25.1688 C   0  0  0  0  0  0  0  0  0  0  0  0
    3.7479   -5.0680  -24.1688 C   0  0  0  0  0  0  0  0  0  0  0  0
    4.7761   -5.6637  -23.4424 N   0  0  0  0  0  0  0  0  0  0  0  0
    5.4970   -3.6820  -25.4312 C   0  0  0  0  0  0  0  0  0  0  0  0
    5.8143   -6.8063  -29.5668 C   0  0  0  0  0  0  0  0  0  0  0  0
    6.6474   -7.0182  -30.7222 C   0  0  0  0  0  0  0  0  0  0  0  0
    5.9899   -5.0510  -28.9528 C   0  0  0  0  0  0  0  0  0  0  0  0
    5.3695   -4.7195  -27.6960 C   0  0  0  0  0  0  0  0  0  0  0  0
    6.1174   -4.0135  -26.6879 C   0  0  0  0  0  0  0  0  0  0  0  0
    7.4340   -4.6556  -29.2152 C   0  0  0  0  0  0  0  0  0  0  0  0
    8.1171   -4.0106  -28.2942 N   0  0  0  0  0  0  0  0  0  0  0  0
    7.5269   -3.6953  -27.0987 O   0  0  0  0  0  0  0  0  0  0  0  0
    8.0887   -5.0054  -30.5415 C   0  0  0  0  0  0  0  0  0  0  0  0
    8.0813   -6.5139  -30.7280 C   0  0  0  0  0  0  0  0  0  0  0  0
    8.0463   -3.2051  -26.3986 H   0  0  0  0  0  0  0  0  0  0  0  0
    5.3044   -3.4671  -21.2408 C   0  0  0  0  0  0  0  0  0  0  0  0
    6.5426   -3.2207  -22.0873 C   0  0  0  0  0  0  0  0  0  0  0  0
    7.0410   -8.1366  -23.9579 C   0  0  0  0  0  0  0  0  0  0  0  0
    7.9266   -6.9702  -23.5513 C   0  0  0  0  0  0  0  0  0  0  0  0
    7.1026   -5.9211  -22.9339 N   0  0  0  0  0  0  0  0  0  0  0  0
    7.3638   -5.5007  -21.5497 C   0  0  0  0  0  0  0  0  0  0  0  0
    7.7073   -4.0201  -21.5262 C   0  0  0  0  0  0  0  0  0  0  0  0
    2.3039   -5.4634  -23.9064 C   0  0  0  0  0  0  0  0  0  0  0  0
   -0.6291   -4.2512  -21.9468 C   0  0  0  0  0  0  0  0  0  0  0  0
   -0.0793   -3.0760  -21.3216 C   0  0  0  0  0  0  0  0  0  0  0  0
    1.2439   -2.7136  -21.5622 N   0  0  0  0  0  0  0  0  0  0  0  0
    2.0353   -3.4877  -22.4073 C   0  0  0  0  0  0  0  0  0  0  0  0
    1.4855   -4.6629  -23.0324 C   0  0  0  0  0  0  0  0  0  0  0  0
 18 19  1  0  0  0
 19 20  1  0  0  0
 20 21  1  0  0  0
 21 22  1  0  0  0
 22 23  1  0  0  0
 23 24  1  0  0  0
 19 24  1  0  0  0
 22  1  1  0  0  0
  1  2  1  0  0  0
  2  3  2  0  0  0
  3  4  1  0  0  0
  4  5  2  0  0  0
  1  5  1  0  0  0
  4 25  1  0  0  0
 25 26  2  0  0  0
 26 27  1  0  0  0
 27 28  2  0  0  0
 28 29  1  0  0  0
 29 30  2  0  0  0
 25 30  1  0  0  0
  3  6  1  0  0  0
  6  7  2  0  0  0
  7  8  1  0  0  0
  8  9  2  0  0  0
  9 10  1  0  0  0
 10 11  2  0  0  0
  6 11  1  0  0  0
  9 12  1  0  0  0
 12 13  2  0  0  0
 13 14  1  0  0  0
 12 15  1  0  0  0
 15 16  1  0  0  0
  8 16  1  0  0  0
 14 17  1  0  0  0
M  END
> <minimizedAffinity>
-7.15779

$$$$
mol_91896028_6


 30 34  0  0  0  0  0  0  0  0999 V2000
    5.9362   -5.1714  -24.9903 N   0  0  0  0  0  0  0  0  0  0  0  0
    2.3253   -6.8180  -23.5362 C   0  0  0  0  0  0  0  0  0  0  0  0
    3.5655   -6.2828  -24.0356 C   0  0  0  0  0  0  0  0  0  0  0  0
    3.7561   -4.8573  -24.1113 C   0  0  0  0  0  0  0  0  0  0  0  0
    4.9556   -4.3397  -24.5943 N   0  0  0  0  0  0  0  0  0  0  0  0
    4.6734   -7.2225  -24.4832 C   0  0  0  0  0  0  0  0  0  0  0  0
    1.9198   -8.8476  -28.5750 C   0  0  0  0  0  0  0  0  0  0  0  0
    2.1111   -9.5420  -29.8221 C   0  0  0  0  0  0  0  0  0  0  0  0
    3.5206   -8.0637  -28.0162 C   0  0  0  0  0  0  0  0  0  0  0  0
    3.5550   -7.4865  -26.6972 C   0  0  0  0  0  0  0  0  0  0  0  0
    4.6389   -7.7998  -25.8022 C   0  0  0  0  0  0  0  0  0  0  0  0
    4.6284   -9.0034  -28.4638 C   0  0  0  0  0  0  0  0  0  0  0  0
    5.6185   -9.2895  -27.6461 N   0  0  0  0  0  0  0  0  0  0  0  0
    5.6513   -8.7404  -26.3913 O   0  0  0  0  0  0  0  0  0  0  0  0
    4.5921   -9.6126  -29.8558 C   0  0  0  0  0  0  0  0  0  0  0  0
    3.3247  -10.4364  -30.0155 C   0  0  0  0  0  0  0  0  0  0  0  0
    6.4039   -8.9580  -25.7698 H   0  0  0  0  0  0  0  0  0  0  0  0
    7.4048   -6.4835  -22.5372 C   0  0  0  0  0  0  0  0  0  0  0  0
    7.1526   -4.9868  -22.6185 C   0  0  0  0  0  0  0  0  0  0  0  0
    6.6475   -4.6961  -27.8696 C   0  0  0  0  0  0  0  0  0  0  0  0
    7.1717   -3.8506  -26.7205 C   0  0  0  0  0  0  0  0  0  0  0  0
    7.1591   -4.6437  -25.4829 N   0  0  0  0  0  0  0  0  0  0  0  0
    8.4122   -4.8906  -24.7552 C   0  0  0  0  0  0  0  0  0  0  0  0
    8.3041   -4.3180  -23.3513 C   0  0  0  0  0  0  0  0  0  0  0  0
    2.6484   -3.9176  -23.6638 C   0  0  0  0  0  0  0  0  0  0  0  0
    1.8510   -1.6845  -20.7847 C   0  0  0  0  0  0  0  0  0  0  0  0
    3.0113   -1.8773  -19.9536 C   0  0  0  0  0  0  0  0  0  0  0  0
    4.0264   -2.7383  -20.3638 N   0  0  0  0  0  0  0  0  0  0  0  0
    3.9194   -3.4129  -21.5775 C   0  0  0  0  0  0  0  0  0  0  0  0
    2.7590   -3.2201  -22.4086 C   0  0  0  0  0  0  0  0  0  0  0  0
 18 19  1  0  0  0
 19 20  1  0  0  0
 20 21  1  0  0  0
 21 22  1  0  0  0
 22 23  1  0  0  0
 23 24  1  0  0  0
 19 24  1  0  0  0
 22  1  1  0  0  0
  1  2  1  0  0  0
  2  3  2  0  0  0
  3  4  1  0  0  0
  4  5  2  0  0  0
  1  5  1  0  0  0
  4 25  1  0  0  0
 25 26  2  0  0  0
 26 27  1  0  0  0
 27 28  2  0  0  0
 28 29  1  0  0  0
 29 30  2  0  0  0
 25 30  1  0  0  0
  3  6  1  0  0  0
  6  7  2  0  0  0
  7  8  1  0  0  0
  8  9  2  0  0  0
  9 10  1  0  0  0
 10 11  2  0  0  0
  6 11  1  0  0  0
  9 12  1  0  0  0
 12 13  2  0  0  0
 13 14  1  0  0  0
 12 15  1  0  0  0
 15 16  1  0  0  0
  8 16  1  0  0  0
 14 17  1  0  0  0
M  END
> <minimizedAffinity>
-7.15295

$$$$
mol_11624965_7


 30 34  0  0  0  0  0  0  0  0999 V2000
    6.2861   -5.2681  -23.5080 N   0  0  0  0  0  0  0  0  0  0  0  0
    2.2473   -4.2944  -24.2853 C   0  0  0  0  0  0  0  0  0  0  0  0
    3.6290   -4.5990  -24.0169 C   0  0  0  0  0  0  0  0  0  0  0  0
    4.0822   -5.9659  -24.0374 C   0  0  0  0  0  0  0  0  0  0  0  0
    5.4186   -6.2604  -23.7778 N   0  0  0  0  0  0  0  0  0  0  0  0
    4.6091   -3.4778  -23.7120 C   0  0  0  0  0  0  0  0  0  0  0  0
    2.3364   -2.4554  -19.1562 C   0  0  0  0  0  0  0  0  0  0  0  0
    2.6069   -1.7576  -17.9257 C   0  0  0  0  0  0  0  0  0  0  0  0
    3.9348   -2.9208  -20.0033 C   0  0  0  0  0  0  0  0  0  0  0  0
    3.8501   -3.4605  -21.3358 C   0  0  0  0  0  0  0  0  0  0  0  0
    4.6938   -2.9381  -22.3795 C   0  0  0  0  0  0  0  0  0  0  0  0
    4.9149   -1.7996  -19.6984 C   0  0  0  0  0  0  0  0  0  0  0  0
    5.6857   -1.3223  -20.6518 N   0  0  0  0  0  0  0  0  0  0  0  0
    5.6051   -1.8358  -21.9194 O   0  0  0  0  0  0  0  0  0  0  0  0
    5.0045   -1.2300  -18.2921 C   0  0  0  0  0  0  0  0  0  0  0  0
    3.6549   -0.6573  -17.8905 C   0  0  0  0  0  0  0  0  0  0  0  0
    6.1910   -1.4731  -22.6440 H   0  0  0  0  0  0  0  0  0  0  0  0
    7.0359   -3.9440  -26.2613 C   0  0  0  0  0  0  0  0  0  0  0  0
    7.0478   -5.4509  -26.0625 C   0  0  0  0  0  0  0  0  0  0  0  0
    7.5936   -5.4099  -20.8077 C   0  0  0  0  0  0  0  0  0  0  0  0
    8.0215   -6.2535  -21.9975 C   0  0  0  0  0  0  0  0  0  0  0  0
    7.6484   -5.5684  -23.2434 N   0  0  0  0  0  0  0  0  0  0  0  0
    8.6858   -5.1942  -24.2153 C   0  0  0  0  0  0  0  0  0  0  0  0
    8.4091   -5.8825  -25.5420 C   0  0  0  0  0  0  0  0  0  0  0  0
    3.1021   -7.0870  -24.3423 C   0  0  0  0  0  0  0  0  0  0  0  0
    2.0361   -9.1751  -27.2431 C   0  0  0  0  0  0  0  0  0  0  0  0
    2.8792   -8.6520  -28.2870 C   0  0  0  0  0  0  0  0  0  0  0  0
    3.7773   -7.6247  -28.0077 N   0  0  0  0  0  0  0  0  0  0  0  0
    3.8599   -7.1032  -26.7188 C   0  0  0  0  0  0  0  0  0  0  0  0
    3.0167   -7.6263  -25.6749 C   0  0  0  0  0  0  0  0  0  0  0  0
 18 19  1  0  0  0
 19 20  1  0  0  0
 20 21  1  0  0  0
 21 22  1  0  0  0
 22 23  1  0  0  0
 23 24  1  0  0  0
 19 24  1  0  0  0
 22  1  1  0  0  0
  1  2  1  0  0  0
  2  3  2  0  0  0
  3  4  1  0  0  0
  4  5  2  0  0  0
  1  5  1  0  0  0
  4 25  1  0  0  0
 25 26  2  0  0  0
 26 27  1  0  0  0
 27 28  2  0  0  0
 28 29  1  0  0  0
 29 30  2  0  0  0
 25 30  1  0  0  0
  3  6  1  0  0  0
  6  7  2  0  0  0
  7  8  1  0  0  0
  8  9  2  0  0  0
  9 10  1  0  0  0
 10 11  2  0  0  0
  6 11  1  0  0  0
  9 12  1  0  0  0
 12 13  2  0  0  0
 13 14  1  0  0  0
 12 15  1  0  0  0
 15 16  1  0  0  0
  8 16  1  0  0  0
 14 17  1  0  0  0
M  END
> <minimizedAffinity>
-7.90663

$$$$
mol_11624965_7


 30 34  0  0  0  0  0  0  0  0999 V2000
    6.3593   -5.6392  -23.8392 N   0  0  0  0  0  0  0  0  0  0  0  0
    2.2803   -5.9717  -24.8956 C   0  0  0  0  0  0  0  0  0  0  0  0
    3.6655   -5.8323  -24.5271 C   0  0  0  0  0  0  0  0  0  0  0  0
    4.5764   -6.9308  -24.7208 C   0  0  0  0  0  0  0  0  0  0  0  0
    5.9161   -6.7959  -24.3644 N   0  0  0  0  0  0  0  0  0  0  0  0
    4.1662   -4.5254  -23.9337 C   0  0  0  0  0  0  0  0  0  0  0  0
   -0.5457   -3.3067  -22.1231 C   0  0  0  0  0  0  0  0  0  0  0  0
   -1.1617   -2.4110  -21.1784 C   0  0  0  0  0  0  0  0  0  0  0  0
    1.2438   -3.5951  -21.6723 C   0  0  0  0  0  0  0  0  0  0  0  0
    2.0598   -4.3179  -22.6135 C   0  0  0  0  0  0  0  0  0  0  0  0
    3.3502   -3.8026  -22.9926 C   0  0  0  0  0  0  0  0  0  0  0  0
    1.7445   -2.2883  -21.0789 C   0  0  0  0  0  0  0  0  0  0  0  0
    2.9233   -1.8176  -21.4251 N   0  0  0  0  0  0  0  0  0  0  0  0
    3.6995   -2.5052  -22.3205 O   0  0  0  0  0  0  0  0  0  0  0  0
    0.8834   -1.5255  -20.0855 C   0  0  0  0  0  0  0  0  0  0  0  0
   -0.4349   -1.1494  -20.7420 C   0  0  0  0  0  0  0  0  0  0  0  0
    4.5954   -2.1474  -22.5836 H   0  0  0  0  0  0  0  0  0  0  0  0
    6.7389   -3.7014  -26.2881 C   0  0  0  0  0  0  0  0  0  0  0  0
    7.2672   -5.1266  -26.2992 C   0  0  0  0  0  0  0  0  0  0  0  0
    7.4928   -5.7784  -21.0612 C   0  0  0  0  0  0  0  0  0  0  0  0
    8.2496   -6.2178  -22.3041 C   0  0  0  0  0  0  0  0  0  0  0  0
    7.7250   -5.5016  -23.4758 N   0  0  0  0  0  0  0  0  0  0  0  0
    8.6144   -4.6431  -24.2713 C   0  0  0  0  0  0  0  0  0  0  0  0
    8.6648   -5.1536  -25.7022 C   0  0  0  0  0  0  0  0  0  0  0  0
    4.0757   -8.2376  -25.3142 C   0  0  0  0  0  0  0  0  0  0  0  0
    3.8249   -9.8967  -28.6452 C   0  0  0  0  0  0  0  0  0  0  0  0
    4.4050   -8.8933  -29.5000 C   0  0  0  0  0  0  0  0  0  0  0  0
    4.8638   -7.6959  -28.9564 N   0  0  0  0  0  0  0  0  0  0  0  0
    4.7616   -7.4689  -27.5860 C   0  0  0  0  0  0  0  0  0  0  0  0
    4.1814   -8.4724  -26.7311 C   0  0  0  0  0  0  0  0  0  0  0  0
 18 19  1  0  0  0
 19 20  1  0  0  0
 20 21  1  0  0  0
 21 22  1  0  0  0
 22 23  1  0  0  0
 23 24  1  0  0  0
 19 24  1  0  0  0
 22  1  1  0  0  0
  1  2  1  0  0  0
  2  3  2  0  0  0
  3  4  1  0  0  0
  4  5  2  0  0  0
  1  5  1  0  0  0
  4 25  1  0  0  0
 25 26  2  0  0  0
 26 27  1  0  0  0
 27 28  2  0  0  0
 28 29  1  0  0  0
 29 30  2  0  0  0
 25 30  1  0  0  0
  3  6  1  0  0  0
  6  7  2  0  0  0
  7  8  1  0  0  0
  8  9  2  0  0  0
  9 10  1  0  0  0
 10 11  2  0  0  0
  6 11  1  0  0  0
  9 12  1  0  0  0
 12 13  2  0  0  0
 13 14  1  0  0  0
 12 15  1  0  0  0
 15 16  1  0  0  0
  8 16  1  0  0  0
 14 17  1  0  0  0
M  END
> <minimizedAffinity>
-7.44030

$$$$
mol_11624965_7


 30 34  0  0  0  0  0  0  0  0999 V2000
    4.5417   -5.7208  -24.3718 N   0  0  0  0  0  0  0  0  0  0  0  0
    8.6851   -4.8938  -24.2573 C   0  0  0  0  0  0  0  0  0  0  0  0
    7.2743   -5.1749  -24.3242 C   0  0  0  0  0  0  0  0  0  0  0  0
    6.5164   -5.3495  -23.1120 C   0  0  0  0  0  0  0  0  0  0  0  0
    5.1519   -5.6214  -23.1769 N   0  0  0  0  0  0  0  0  0  0  0  0
    6.5849   -5.2874  -25.6743 C   0  0  0  0  0  0  0  0  0  0  0  0
    8.3773  -10.1042  -26.4164 C   0  0  0  0  0  0  0  0  0  0  0  0
    8.1257  -11.2544  -27.2458 C   0  0  0  0  0  0  0  0  0  0  0  0
    6.8493   -9.0355  -26.3078 C   0  0  0  0  0  0  0  0  0  0  0  0
    6.9789   -7.7506  -25.6703 C   0  0  0  0  0  0  0  0  0  0  0  0
    6.4554   -6.5722  -26.3118 C   0  0  0  0  0  0  0  0  0  0  0  0
    6.1600   -9.1479  -27.6579 C   0  0  0  0  0  0  0  0  0  0  0  0
    5.6817   -8.0714  -28.2440 N   0  0  0  0  0  0  0  0  0  0  0  0
    5.8050   -6.8492  -27.6375 O   0  0  0  0  0  0  0  0  0  0  0  0
    6.0231  -10.5039  -28.3308 C   0  0  0  0  0  0  0  0  0  0  0  0
    7.4042  -11.0907  -28.5736 C   0  0  0  0  0  0  0  0  0  0  0  0
    5.4415   -6.0311  -28.0829 H   0  0  0  0  0  0  0  0  0  0  0  0
    4.0786   -2.7777  -25.3817 C   0  0  0  0  0  0  0  0  0  0  0  0
    3.7228   -3.2097  -23.9685 C   0  0  0  0  0  0  0  0  0  0  0  0
    3.2746   -8.3794  -24.9614 C   0  0  0  0  0  0  0  0  0  0  0  0
    2.6474   -7.3269  -24.0618 C   0  0  0  0  0  0  0  0  0  0  0  0
    3.1507   -5.9980  -24.4379 N   0  0  0  0  0  0  0  0  0  0  0  0
    2.2139   -4.9560  -24.8823 C   0  0  0  0  0  0  0  0  0  0  0  0
    2.3060   -3.7601  -23.9485 C   0  0  0  0  0  0  0  0  0  0  0  0
    7.2057   -5.2371  -21.7619 C   0  0  0  0  0  0  0  0  0  0  0  0
    7.4802   -2.8126  -18.9410 C   0  0  0  0  0  0  0  0  0  0  0  0
    6.6455   -1.7389  -19.4149 C   0  0  0  0  0  0  0  0  0  0  0  0
    6.0139   -1.8418  -20.6520 N   0  0  0  0  0  0  0  0  0  0  0  0
    6.1895   -2.9832  -21.4307 C   0  0  0  0  0  0  0  0  0  0  0  0
    7.0242   -4.0569  -20.9567 C   0  0  0  0  0  0  0  0  0  0  0  0
 18 19  1  0  0  0
 19 20  1  0  0  0
 20 21  1  0  0  0
 21 22  1  0  0  0
 22 23  1  0  0  0
 23 24  1  0  0  0
 19 24  1  0  0  0
 22  1  1  0  0  0
  1  2  1  0  0  0
  2  3  2  0  0  0
  3  4  1  0  0  0
  4  5  2  0  0  0
  1  5  1  0  0  0
  4 25  1  0  0  0
 25 26  2  0  0  0
 26 27  1  0  0  0
 27 28  2  0  0  0
 28 29  1  0  0  0
 29 30  2  0  0  0
 25 30  1  0  0  0
  3  6  1  0  0  0
  6  7  2  0  0  0
  7  8  1  0  0  0
  8  9  2  0  0  0
  9 10  1  0  0  0
 10 11  2  0  0  0
  6 11  1  0  0  0
  9 12  1  0  0  0
 12 13  2  0  0  0
 13 14  1  0  0  0
 12 15  1  0  0  0
 15 16  1  0  0  0
  8 16  1  0  0  0
 14 17  1  0  0  0
M  END
> <minimizedAffinity>
-7.39665

$$$$
mol_11624965_7


 30 34  0  0  0  0  0  0  0  0999 V2000
    6.0550   -5.3127  -23.6761 N   0  0  0  0  0  0  0  0  0  0  0  0
    2.9890   -3.4608  -25.9199 C   0  0  0  0  0  0  0  0  0  0  0  0
    4.0526   -4.0766  -25.1692 C   0  0  0  0  0  0  0  0  0  0  0  0
    3.7484   -5.0677  -24.1696 C   0  0  0  0  0  0  0  0  0  0  0  0
    4.7771   -5.6632  -23.4435 N   0  0  0  0  0  0  0  0  0  0  0  0
    5.4964   -3.6806  -25.4320 C   0  0  0  0  0  0  0  0  0  0  0  0
    5.8155   -6.8084  -29.5648 C   0  0  0  0  0  0  0  0  0  0  0  0
    6.6487   -7.0207  -30.7201 C   0  0  0  0  0  0  0  0  0  0  0  0
    5.9900   -5.0525  -28.9524 C   0  0  0  0  0  0  0  0  0  0  0  0
    5.3695   -4.7202  -27.6960 C   0  0  0  0  0  0  0  0  0  0  0  0
    6.1169   -4.0128  -26.6884 C   0  0  0  0  0  0  0  0  0  0  0  0
    7.4338   -4.6564  -29.2152 C   0  0  0  0  0  0  0  0  0  0  0  0
    8.1166   -4.0101  -28.2949 N   0  0  0  0  0  0  0  0  0  0  0  0
    7.5264   -3.6941  -27.0996 O   0  0  0  0  0  0  0  0  0  0  0  0
    8.0887   -5.0069  -30.5414 C   0  0  0  0  0  0  0  0  0  0  0  0
    8.0823   -6.5156  -30.7264 C   0  0  0  0  0  0  0  0  0  0  0  0
    8.0453   -3.2029  -26.4001 H   0  0  0  0  0  0  0  0  0  0  0  0
    5.3053   -3.4671  -21.2414 C   0  0  0  0  0  0  0  0  0  0  0  0
    6.5431   -3.2200  -22.0882 C   0  0  0  0  0  0  0  0  0  0  0  0
    7.0427   -8.1350  -23.9609 C   0  0  0  0  0  0  0  0  0  0  0  0
    7.9281   -6.9683  -23.5541 C   0  0  0  0  0  0  0  0  0  0  0  0
    7.1038   -5.9198  -22.9360 N   0  0  0  0  0  0  0  0  0  0  0  0
    7.3652   -5.4998  -21.5518 C   0  0  0  0  0  0  0  0  0  0  0  0
    7.7083   -4.0192  -21.5278 C   0  0  0  0  0  0  0  0  0  0  0  0
    2.3045   -5.4638  -23.9068 C   0  0  0  0  0  0  0  0  0  0  0  0
   -0.6290   -4.2519  -21.9480 C   0  0  0  0  0  0  0  0  0  0  0  0
   -0.0798   -3.0761  -21.3235 C   0  0  0  0  0  0  0  0  0  0  0  0
    1.2431   -2.7131  -21.5642 N   0  0  0  0  0  0  0  0  0  0  0  0
    2.0350   -3.4874  -22.4089 C   0  0  0  0  0  0  0  0  0  0  0  0
    1.4858   -4.6632  -23.0334 C   0  0  0  0  0  0  0  0  0  0  0  0
 18 19  1  0  0  0
 19 20  1  0  0  0
 20 21  1  0  0  0
 21 22  1  0  0  0
 22 23  1  0  0  0
 23 24  1  0  0  0
 19 24  1  0  0  0
 22  1  1  0  0  0
  1  2  1  0  0  0
  2  3  2  0  0  0
  3  4  1  0  0  0
  4  5  2  0  0  0
  1  5  1  0  0  0
  4 25  1  0  0  0
 25 26  2  0  0  0
 26 27  1  0  0  0
 27 28  2  0  0  0
 28 29  1  0  0  0
 29 30  2  0  0  0
 25 30  1  0  0  0
  3  6  1  0  0  0
  6  7  2  0  0  0
  7  8  1  0  0  0
  8  9  2  0  0  0
  9 10  1  0  0  0
 10 11  2  0  0  0
  6 11  1  0  0  0
  9 12  1  0  0  0
 12 13  2  0  0  0
 13 14  1  0  0  0
 12 15  1  0  0  0
 15 16  1  0  0  0
  8 16  1  0  0  0
 14 17  1  0  0  0
M  END
> <minimizedAffinity>
-7.16811

$$$$
mol_11624965_7


 30 34  0  0  0  0  0  0  0  0999 V2000
    5.9580   -5.1660  -24.9634 N   0  0  0  0  0  0  0  0  0  0  0  0
    2.3311   -6.8107  -23.5476 C   0  0  0  0  0  0  0  0  0  0  0  0
    3.5767   -6.2761  -24.0340 C   0  0  0  0  0  0  0  0  0  0  0  0
    3.7694   -4.8508  -24.1062 C   0  0  0  0  0  0  0  0  0  0  0  0
    4.9742   -4.3338  -24.5766 N   0  0  0  0  0  0  0  0  0  0  0  0
    4.6883   -7.2164  -24.4710 C   0  0  0  0  0  0  0  0  0  0  0  0
    1.9648   -8.8544  -28.5778 C   0  0  0  0  0  0  0  0  0  0  0  0
    2.1654   -9.5520  -29.8217 C   0  0  0  0  0  0  0  0  0  0  0  0
    3.5610   -8.0679  -28.0099 C   0  0  0  0  0  0  0  0  0  0  0  0
    3.5858   -7.4871  -26.6923 C   0  0  0  0  0  0  0  0  0  0  0  0
    4.6635   -7.7972  -25.7887 C   0  0  0  0  0  0  0  0  0  0  0  0
    4.6726   -9.0082  -28.4470 C   0  0  0  0  0  0  0  0  0  0  0  0
    5.6572   -9.2914  -27.6216 N   0  0  0  0  0  0  0  0  0  0  0  0
    5.6806   -8.7389  -26.3681 O   0  0  0  0  0  0  0  0  0  0  0  0
    4.6466   -9.6211  -29.8377 C   0  0  0  0  0  0  0  0  0  0  0  0
    3.3810  -10.4463  -30.0041 C   0  0  0  0  0  0  0  0  0  0  0  0
    6.4290   -8.9541  -25.7408 H   0  0  0  0  0  0  0  0  0  0  0  0
    7.4002   -6.4807  -22.4960 C   0  0  0  0  0  0  0  0  0  0  0  0
    7.1500   -4.9838  -22.5790 C   0  0  0  0  0  0  0  0  0  0  0  0
    6.6993   -4.6894  -27.8348 C   0  0  0  0  0  0  0  0  0  0  0  0
    7.2124   -3.8450  -26.6798 C   0  0  0  0  0  0  0  0  0  0  0  0
    7.1862   -4.6390  -25.4429 N   0  0  0  0  0  0  0  0  0  0  0  0
    8.4316   -4.8872  -24.7025 C   0  0  0  0  0  0  0  0  0  0  0  0
    8.3096   -4.3154  -23.2994 C   0  0  0  0  0  0  0  0  0  0  0  0
    2.6579   -3.9105  -23.6691 C   0  0  0  0  0  0  0  0  0  0  0  0
    1.8336   -1.6784  -20.7970 C   0  0  0  0  0  0  0  0  0  0  0  0
    2.9853   -1.8725  -19.9544 C   0  0  0  0  0  0  0  0  0  0  0  0
    4.0038   -2.7340  -20.3549 N   0  0  0  0  0  0  0  0  0  0  0  0
    3.9084   -3.4079  -21.5701 C   0  0  0  0  0  0  0  0  0  0  0  0
    2.7566   -3.2137  -22.4126 C   0  0  0  0  0  0  0  0  0  0  0  0
 18 19  1  0  0  0
 19 20  1  0  0  0
 20 21  1  0  0  0
 21 22  1  0  0  0
 22 23  1  0  0  0
 23 24  1  0  0  0
 19 24  1  0  0  0
 22  1  1  0  0  0
  1  2  1  0  0  0
  2  3  2  0  0  0
  3  4  1  0  0  0
  4  5  2  0  0  0
  1  5  1  0  0  0
  4 25  1  0  0  0
 25 26  2  0  0  0
 26 27  1  0  0  0
 27 28  2  0  0  0
 28 29  1  0  0  0
 29 30  2  0  0  0
 25 30  1  0  0  0
  3  6  1  0  0  0
  6  7  2  0  0  0
  7  8  1  0  0  0
  8  9  2  0  0  0
  9 10  1  0  0  0
 10 11  2  0  0  0
  6 11  1  0  0  0
  9 12  1  0  0  0
 12 13  2  0  0  0
 13 14  1  0  0  0
 12 15  1  0  0  0
 15 16  1  0  0  0
  8 16  1  0  0  0
 14 17  1  0  0  0
M  END
> <minimizedAffinity>
-7.15319

$$$$
mol_54586539_8


 30 34  0  0  0  0  0  0  0  0999 V2000
    6.2830   -5.2662  -23.5029 N   0  0  0  0  0  0  0  0  0  0  0  0
    2.2466   -4.2938  -24.2944 C   0  0  0  0  0  0  0  0  0  0  0  0
    3.6275   -4.5980  -24.0212 C   0  0  0  0  0  0  0  0  0  0  0  0
    4.0810   -5.9648  -24.0389 C   0  0  0  0  0  0  0  0  0  0  0  0
    5.4165   -6.2590  -23.7747 N   0  0  0  0  0  0  0  0  0  0  0  0
    4.6065   -3.4765  -23.7141 C   0  0  0  0  0  0  0  0  0  0  0  0
    2.3331   -2.4659  -19.1560 C   0  0  0  0  0  0  0  0  0  0  0  0
    2.6028   -1.7702  -17.9241 C   0  0  0  0  0  0  0  0  0  0  0  0
    3.9320   -2.9277  -20.0042 C   0  0  0  0  0  0  0  0  0  0  0  0
    3.8476   -3.4648  -21.3379 C   0  0  0  0  0  0  0  0  0  0  0  0
    4.6908   -2.9394  -22.3805 C   0  0  0  0  0  0  0  0  0  0  0  0
    4.9108   -1.8063  -19.6971 C   0  0  0  0  0  0  0  0  0  0  0  0
    5.6811   -1.3262  -20.6495 N   0  0  0  0  0  0  0  0  0  0  0  0
    5.6009   -1.8372  -21.9181 O   0  0  0  0  0  0  0  0  0  0  0  0
    4.9999   -1.2394  -18.2895 C   0  0  0  0  0  0  0  0  0  0  0  0
    3.6498   -0.6689  -17.8867 C   0  0  0  0  0  0  0  0  0  0  0  0
    6.1865   -1.4722  -22.6421 H   0  0  0  0  0  0  0  0  0  0  0  0
    7.0401   -3.9559  -26.2606 C   0  0  0  0  0  0  0  0  0  0  0  0
    7.0506   -5.4618  -26.0546 C   0  0  0  0  0  0  0  0  0  0  0  0
    7.5841   -5.3960  -20.7987 C   0  0  0  0  0  0  0  0  0  0  0  0
    8.0142   -6.2456  -21.9835 C   0  0  0  0  0  0  0  0  0  0  0  0
    7.6446   -5.5662  -23.2335 N   0  0  0  0  0  0  0  0  0  0  0  0
    8.6845   -5.1973  -24.2048 C   0  0  0  0  0  0  0  0  0  0  0  0
    8.4104   -5.8918  -25.5288 C   0  0  0  0  0  0  0  0  0  0  0  0
    3.1021   -7.0863  -24.3460 C   0  0  0  0  0  0  0  0  0  0  0  0
    2.0355   -9.1670  -27.2520 C   0  0  0  0  0  0  0  0  0  0  0  0
    2.8768   -8.6397  -28.2953 C   0  0  0  0  0  0  0  0  0  0  0  0
    3.7737   -7.6119  -28.0138 N   0  0  0  0  0  0  0  0  0  0  0  0
    3.8571   -7.0943  -26.7235 C   0  0  0  0  0  0  0  0  0  0  0  0
    3.0159   -7.6217  -25.6803 C   0  0  0  0  0  0  0  0  0  0  0  0
 18 19  1  0  0  0
 19 20  1  0  0  0
 20 21  1  0  0  0
 21 22  1  0  0  0
 22 23  1  0  0  0
 23 24  1  0  0  0
 19 24  1  0  0  0
 22  1  1  0  0  0
  1  2  1  0  0  0
  2  3  2  0  0  0
  3  4  1  0  0  0
  4  5  2  0  0  0
  1  5  1  0  0  0
  4 25  1  0  0  0
 25 26  2  0  0  0
 26 27  1  0  0  0
 27 28  2  0  0  0
 28 29  1  0  0  0
 29 30  2  0  0  0
 25 30  1  0  0  0
  3  6  1  0  0  0
  6  7  2  0  0  0
  7  8  1  0  0  0
  8  9  2  0  0  0
  9 10  1  0  0  0
 10 11  2  0  0  0
  6 11  1  0  0  0
  9 12  1  0  0  0
 12 13  2  0  0  0
 13 14  1  0  0  0
 12 15  1  0  0  0
 15 16  1  0  0  0
  8 16  1  0  0  0
 14 17  1  0  0  0
M  END
> <minimizedAffinity>
-7.91769

$$$$
mol_54586539_8


 30 34  0  0  0  0  0  0  0  0999 V2000
    6.3929   -5.8121  -24.2158 N   0  0  0  0  0  0  0  0  0  0  0  0
    2.2959   -6.0129  -25.2353 C   0  0  0  0  0  0  0  0  0  0  0  0
    3.6881   -5.9182  -24.8791 C   0  0  0  0  0  0  0  0  0  0  0  0
    4.5646   -7.0404  -25.0951 C   0  0  0  0  0  0  0  0  0  0  0  0
    5.9110   -6.9489  -24.7505 N   0  0  0  0  0  0  0  0  0  0  0  0
    4.2324   -4.6341  -24.2749 C   0  0  0  0  0  0  0  0  0  0  0  0
   -0.3840   -3.3912  -22.2477 C   0  0  0  0  0  0  0  0  0  0  0  0
   -0.9479   -2.5102  -21.2577 C   0  0  0  0  0  0  0  0  0  0  0  0
    1.4174   -3.7170  -21.8763 C   0  0  0  0  0  0  0  0  0  0  0  0
    2.1838   -4.4282  -22.8666 C   0  0  0  0  0  0  0  0  0  0  0  0
    3.4660   -3.9228  -23.2846 C   0  0  0  0  0  0  0  0  0  0  0  0
    1.9617   -2.4328  -21.2721 C   0  0  0  0  0  0  0  0  0  0  0  0
    3.1330   -1.9711  -21.6539 N   0  0  0  0  0  0  0  0  0  0  0  0
    3.8621   -2.6477  -22.5960 O   0  0  0  0  0  0  0  0  0  0  0  0
    1.1528   -1.6821  -20.2268 C   0  0  0  0  0  0  0  0  0  0  0  0
   -0.1846   -1.2705  -20.8205 C   0  0  0  0  0  0  0  0  0  0  0  0
    4.7524   -2.2966  -22.8861 H   0  0  0  0  0  0  0  0  0  0  0  0
    6.7980   -3.8294  -26.6241 C   0  0  0  0  0  0  0  0  0  0  0  0
    7.2882   -5.2673  -26.6734 C   0  0  0  0  0  0  0  0  0  0  0  0
    7.5514   -6.0448  -21.4543 C   0  0  0  0  0  0  0  0  0  0  0  0
    8.2831   -6.4752  -22.7152 C   0  0  0  0  0  0  0  0  0  0  0  0
    7.7655   -5.7189  -23.8645 N   0  0  0  0  0  0  0  0  0  0  0  0
    8.6690   -4.8660  -24.6502 C   0  0  0  0  0  0  0  0  0  0  0  0
    8.6907   -5.3447  -26.0927 C   0  0  0  0  0  0  0  0  0  0  0  0
    4.0203   -8.3245  -25.6992 C   0  0  0  0  0  0  0  0  0  0  0  0
    3.6683   -9.9240  -29.0503 C   0  0  0  0  0  0  0  0  0  0  0  0
    4.2586   -8.9221  -29.9000 C   0  0  0  0  0  0  0  0  0  0  0  0
    4.7573   -7.7453  -29.3464 N   0  0  0  0  0  0  0  0  0  0  0  0
    4.6852   -7.5376  -27.9711 C   0  0  0  0  0  0  0  0  0  0  0  0
    4.0949   -8.5395  -27.1214 C   0  0  0  0  0  0  0  0  0  0  0  0
 18 19  1  0  0  0
 19 20  1  0  0  0
 20 21  1  0  0  0
 21 22  1  0  0  0
 22 23  1  0  0  0
 23 24  1  0  0  0
 19 24  1  0  0  0
 22  1  1  0  0  0
  1  2  1  0  0  0
  2  3  2  0  0  0
  3  4  1  0  0  0
  4  5  2  0  0  0
  1  5  1  0  0  0
  4 25  1  0  0  0
 25 26  2  0  0  0
 26 27  1  0  0  0
 27 28  2  0  0  0
 28 29  1  0  0  0
 29 30  2  0  0  0
 25 30  1  0  0  0
  3  6  1  0  0  0
  6  7  2  0  0  0
  7  8  1  0  0  0
  8  9  2  0  0  0
  9 10  1  0  0  0
 10 11  2  0  0  0
  6 11  1  0  0  0
  9 12  1  0  0  0
 12 13  2  0  0  0
 13 14  1  0  0  0
 12 15  1  0  0  0
 15 16  1  0  0  0
  8 16  1  0  0  0
 14 17  1  0  0  0
M  END
> <minimizedAffinity>
-7.36710

$$$$
mol_54586539_8


 30 34  0  0  0  0  0  0  0  0999 V2000
    6.7832   -4.3965  -21.2933 N   0  0  0  0  0  0  0  0  0  0  0  0
    4.1424   -5.9386  -24.2110 C   0  0  0  0  0  0  0  0  0  0  0  0
    5.0578   -5.4363  -23.2191 C   0  0  0  0  0  0  0  0  0  0  0  0
    4.8279   -4.1504  -22.6127 C   0  0  0  0  0  0  0  0  0  0  0  0
    5.7133   -3.6645  -21.6534 N   0  0  0  0  0  0  0  0  0  0  0  0
    6.2665   -6.2632  -22.8124 C   0  0  0  0  0  0  0  0  0  0  0  0
    5.8813   -9.2719  -27.0272 C   0  0  0  0  0  0  0  0  0  0  0  0
    6.6699  -10.2109  -27.7825 C   0  0  0  0  0  0  0  0  0  0  0  0
    6.9910   -8.1241  -26.0576 C   0  0  0  0  0  0  0  0  0  0  0  0
    6.3677   -7.2426  -25.1043 C   0  0  0  0  0  0  0  0  0  0  0  0
    6.8897   -7.1447  -23.7656 C   0  0  0  0  0  0  0  0  0  0  0  0
    8.1997   -8.9511  -25.6509 C   0  0  0  0  0  0  0  0  0  0  0  0
    8.6766   -8.8616  -24.4280 N   0  0  0  0  0  0  0  0  0  0  0  0
    8.0837   -8.0230  -23.5211 O   0  0  0  0  0  0  0  0  0  0  0  0
    8.8575   -9.8814  -26.6569 C   0  0  0  0  0  0  0  0  0  0  0  0
    7.8471  -10.9149  -27.1274 C   0  0  0  0  0  0  0  0  0  0  0  0
    8.4463   -7.9551  -22.5916 H   0  0  0  0  0  0  0  0  0  0  0  0
    8.5880   -3.2967  -23.6234 C   0  0  0  0  0  0  0  0  0  0  0  0
    8.9718   -4.5288  -22.8202 C   0  0  0  0  0  0  0  0  0  0  0  0
    6.0810   -3.4388  -18.5344 C   0  0  0  0  0  0  0  0  0  0  0  0
    7.4034   -4.1004  -18.8866 C   0  0  0  0  0  0  0  0  0  0  0  0
    7.6858   -3.9012  -20.3154 N   0  0  0  0  0  0  0  0  0  0  0  0
    8.9025   -3.1891  -20.7318 C   0  0  0  0  0  0  0  0  0  0  0  0
    9.7581   -4.1069  -21.5898 C   0  0  0  0  0  0  0  0  0  0  0  0
    3.6193   -3.3234  -23.0194 C   0  0  0  0  0  0  0  0  0  0  0  0
    0.7864   -1.5085  -21.4091 C   0  0  0  0  0  0  0  0  0  0  0  0
    1.0546   -1.7547  -20.0157 C   0  0  0  0  0  0  0  0  0  0  0  0
    2.1623   -2.5126  -19.6430 N   0  0  0  0  0  0  0  0  0  0  0  0
    3.0104   -3.0322  -20.6179 C   0  0  0  0  0  0  0  0  0  0  0  0
    2.7422   -2.7859  -22.0113 C   0  0  0  0  0  0  0  0  0  0  0  0
 18 19  1  0  0  0
 19 20  1  0  0  0
 20 21  1  0  0  0
 21 22  1  0  0  0
 22 23  1  0  0  0
 23 24  1  0  0  0
 19 24  1  0  0  0
 22  1  1  0  0  0
  1  2  1  0  0  0
  2  3  2  0  0  0
  3  4  1  0  0  0
  4  5  2  0  0  0
  1  5  1  0  0  0
  4 25  1  0  0  0
 25 26  2  0  0  0
 26 27  1  0  0  0
 27 28  2  0  0  0
 28 29  1  0  0  0
 29 30  2  0  0  0
 25 30  1  0  0  0
  3  6  1  0  0  0
  6  7  2  0  0  0
  7  8  1  0  0  0
  8  9  2  0  0  0
  9 10  1  0  0  0
 10 11  2  0  0  0
  6 11  1  0  0  0
  9 12  1  0  0  0
 12 13  2  0  0  0
 13 14  1  0  0  0
 12 15  1  0  0  0
 15 16  1  0  0  0
  8 16  1  0  0  0
 14 17  1  0  0  0
M  END
> <minimizedAffinity>
-7.27486

$$$$
mol_54586539_8


 30 34  0  0  0  0  0  0  0  0999 V2000
    5.9935   -5.2582  -23.6430 N   0  0  0  0  0  0  0  0  0  0  0  0
    2.9313   -3.4088  -25.8942 C   0  0  0  0  0  0  0  0  0  0  0  0
    3.9937   -4.0237  -25.1409 C   0  0  0  0  0  0  0  0  0  0  0  0
    3.6882   -5.0191  -24.1459 C   0  0  0  0  0  0  0  0  0  0  0  0
    4.7156   -5.6137  -23.4173 N   0  0  0  0  0  0  0  0  0  0  0  0
    5.4373   -3.6220  -25.3958 C   0  0  0  0  0  0  0  0  0  0  0  0
    5.8416   -6.8689  -29.4283 C   0  0  0  0  0  0  0  0  0  0  0  0
    6.6926   -7.1079  -30.5653 C   0  0  0  0  0  0  0  0  0  0  0  0
    5.9919   -5.0938  -28.8665 C   0  0  0  0  0  0  0  0  0  0  0  0
    5.3511   -4.7300  -27.6291 C   0  0  0  0  0  0  0  0  0  0  0  0
    6.0781   -3.9858  -26.6333 C   0  0  0  0  0  0  0  0  0  0  0  0
    7.4355   -4.6922  -29.1216 C   0  0  0  0  0  0  0  0  0  0  0  0
    8.0996   -4.0123  -28.2119 N   0  0  0  0  0  0  0  0  0  0  0  0
    7.4901   -3.6663  -27.0347 O   0  0  0  0  0  0  0  0  0  0  0  0
    8.1118   -5.0760  -30.4276 C   0  0  0  0  0  0  0  0  0  0  0  0
    8.1216   -6.5896  -30.5673 C   0  0  0  0  0  0  0  0  0  0  0  0
    7.9950   -3.1494  -26.3433 H   0  0  0  0  0  0  0  0  0  0  0  0
    5.2275   -3.4225  -21.2060 C   0  0  0  0  0  0  0  0  0  0  0  0
    6.4683   -3.1690  -22.0466 C   0  0  0  0  0  0  0  0  0  0  0  0
    6.9909   -8.0767  -23.9321 C   0  0  0  0  0  0  0  0  0  0  0  0
    7.8710   -6.9086  -23.5179 C   0  0  0  0  0  0  0  0  0  0  0  0
    7.0409   -5.8645  -22.9002 N   0  0  0  0  0  0  0  0  0  0  0  0
    7.2950   -5.4480  -21.5135 C   0  0  0  0  0  0  0  0  0  0  0  0
    7.6334   -3.9664  -21.4835 C   0  0  0  0  0  0  0  0  0  0  0  0
    2.2447   -5.4208  -23.8909 C   0  0  0  0  0  0  0  0  0  0  0  0
   -0.7003   -4.2275  -21.9376 C   0  0  0  0  0  0  0  0  0  0  0  0
   -0.1570   -3.0532  -21.3050 C   0  0  0  0  0  0  0  0  0  0  0  0
    1.1658   -2.6851  -21.5387 N   0  0  0  0  0  0  0  0  0  0  0  0
    1.9632   -3.4527  -22.3842 C   0  0  0  0  0  0  0  0  0  0  0  0
    1.4200   -4.6270  -23.0167 C   0  0  0  0  0  0  0  0  0  0  0  0
 18 19  1  0  0  0
 19 20  1  0  0  0
 20 21  1  0  0  0
 21 22  1  0  0  0
 22 23  1  0  0  0
 23 24  1  0  0  0
 19 24  1  0  0  0
 22  1  1  0  0  0
  1  2  1  0  0  0
  2  3  2  0  0  0
  3  4  1  0  0  0
  4  5  2  0  0  0
  1  5  1  0  0  0
  4 25  1  0  0  0
 25 26  2  0  0  0
 26 27  1  0  0  0
 27 28  2  0  0  0
 28 29  1  0  0  0
 29 30  2  0  0  0
 25 30  1  0  0  0
  3  6  1  0  0  0
  6  7  2  0  0  0
  7  8  1  0  0  0
  8  9  2  0  0  0
  9 10  1  0  0  0
 10 11  2  0  0  0
  6 11  1  0  0  0
  9 12  1  0  0  0
 12 13  2  0  0  0
 13 14  1  0  0  0
 12 15  1  0  0  0
 15 16  1  0  0  0
  8 16  1  0  0  0
 14 17  1  0  0  0
M  END
> <minimizedAffinity>
-7.19029

$$$$
mol_54586539_8


 30 34  0  0  0  0  0  0  0  0999 V2000
    6.0773   -5.1238  -24.8329 N   0  0  0  0  0  0  0  0  0  0  0  0
    2.3638   -6.7220  -23.6000 C   0  0  0  0  0  0  0  0  0  0  0  0
    3.6386   -6.2034  -24.0243 C   0  0  0  0  0  0  0  0  0  0  0  0
    3.8643   -4.7813  -24.0521 C   0  0  0  0  0  0  0  0  0  0  0  0
    5.0972   -4.2797  -24.4625 N   0  0  0  0  0  0  0  0  0  0  0  0
    4.7459   -7.1569  -24.4428 C   0  0  0  0  0  0  0  0  0  0  0  0
    2.0374   -8.8232  -28.5481 C   0  0  0  0  0  0  0  0  0  0  0  0
    2.2409   -9.5370  -29.7822 C   0  0  0  0  0  0  0  0  0  0  0  0
    3.6357   -8.0420  -27.9788 C   0  0  0  0  0  0  0  0  0  0  0  0
    3.6561   -7.4458  -26.6679 C   0  0  0  0  0  0  0  0  0  0  0  0
    4.7255   -7.7531  -25.7536 C   0  0  0  0  0  0  0  0  0  0  0  0
    4.7429   -8.9954  -28.3973 C   0  0  0  0  0  0  0  0  0  0  0  0
    5.7199   -9.2762  -27.5621 N   0  0  0  0  0  0  0  0  0  0  0  0
    5.7393   -8.7091  -26.3151 O   0  0  0  0  0  0  0  0  0  0  0  0
    4.7215   -9.6246  -29.7809 C   0  0  0  0  0  0  0  0  0  0  0  0
    3.4508  -10.4424  -29.9460 C   0  0  0  0  0  0  0  0  0  0  0  0
    6.4819   -8.9225  -25.6803 H   0  0  0  0  0  0  0  0  0  0  0  0
    7.3905   -6.5132  -22.3348 C   0  0  0  0  0  0  0  0  0  0  0  0
    7.1727   -5.0103  -22.3986 C   0  0  0  0  0  0  0  0  0  0  0  0
    6.9459   -4.6082  -27.6617 C   0  0  0  0  0  0  0  0  0  0  0  0
    7.4268   -3.7960  -26.4702 C   0  0  0  0  0  0  0  0  0  0  0  0
    7.3342   -4.6124  -25.2513 N   0  0  0  0  0  0  0  0  0  0  0  0
    8.5429   -4.8994  -24.4653 C   0  0  0  0  0  0  0  0  0  0  0  0
    8.3738   -4.3517  -23.0575 C   0  0  0  0  0  0  0  0  0  0  0  0
    2.7571   -3.8277  -23.6337 C   0  0  0  0  0  0  0  0  0  0  0  0
    1.8723   -1.6471  -20.7399 C   0  0  0  0  0  0  0  0  0  0  0  0
    2.9873   -1.8863  -19.8603 C   0  0  0  0  0  0  0  0  0  0  0  0
    4.0018   -2.7602  -20.2438 N   0  0  0  0  0  0  0  0  0  0  0  0
    3.9380   -3.4025  -21.4779 C   0  0  0  0  0  0  0  0  0  0  0  0
    2.8230   -3.1633  -22.3575 C   0  0  0  0  0  0  0  0  0  0  0  0
 18 19  1  0  0  0
 19 20  1  0  0  0
 20 21  1  0  0  0
 21 22  1  0  0  0
 22 23  1  0  0  0
 23 24  1  0  0  0
 19 24  1  0  0  0
 22  1  1  0  0  0
  1  2  1  0  0  0
  2  3  2  0  0  0
  3  4  1  0  0  0
  4  5  2  0  0  0
  1  5  1  0  0  0
  4 25  1  0  0  0
 25 26  2  0  0  0
 26 27  1  0  0  0
 27 28  2  0  0  0
 28 29  1  0  0  0
 29 30  2  0  0  0
 25 30  1  0  0  0
  3  6  1  0  0  0
  6  7  2  0  0  0
  7  8  1  0  0  0
  8  9  2  0  0  0
  9 10  1  0  0  0
 10 11  2  0  0  0
  6 11  1  0  0  0
  9 12  1  0  0  0
 12 13  2  0  0  0
 13 14  1  0  0  0
 12 15  1  0  0  0
 15 16  1  0  0  0
  8 16  1  0  0  0
 14 17  1  0  0  0
M  END
> <minimizedAffinity>
-7.17416

$$$$
mol_11717001_9


 30 34  0  0  0  0  0  0  0  0999 V2000
    6.2822   -5.2681  -23.5028 N   0  0  0  0  0  0  0  0  0  0  0  0
    2.2446   -4.3029  -24.2970 C   0  0  0  0  0  0  0  0  0  0  0  0
    3.6259   -4.6046  -24.0230 C   0  0  0  0  0  0  0  0  0  0  0  0
    4.0817   -5.9706  -24.0398 C   0  0  0  0  0  0  0  0  0  0  0  0
    5.4176   -6.2624  -23.7746 N   0  0  0  0  0  0  0  0  0  0  0  0
    4.6027   -3.4813  -23.7159 C   0  0  0  0  0  0  0  0  0  0  0  0
    2.3194   -2.4663  -19.1637 C   0  0  0  0  0  0  0  0  0  0  0  0
    2.5859   -1.7683  -17.9325 C   0  0  0  0  0  0  0  0  0  0  0  0
    3.9205   -2.9274  -20.0082 C   0  0  0  0  0  0  0  0  0  0  0  0
    3.8394   -3.4668  -21.3411 C   0  0  0  0  0  0  0  0  0  0  0  0
    4.6838   -2.9418  -22.3829 C   0  0  0  0  0  0  0  0  0  0  0  0
    4.8972   -1.8040  -19.7010 C   0  0  0  0  0  0  0  0  0  0  0  0
    5.6687   -1.3245  -20.6527 N   0  0  0  0  0  0  0  0  0  0  0  0
    5.5916   -1.8376  -21.9207 O   0  0  0  0  0  0  0  0  0  0  0  0
    4.9828   -1.2347  -18.2943 C   0  0  0  0  0  0  0  0  0  0  0  0
    3.6313   -0.6654  -17.8949 C   0  0  0  0  0  0  0  0  0  0  0  0
    6.1779   -1.4730  -22.6442 H   0  0  0  0  0  0  0  0  0  0  0  0
    7.0392   -3.9537  -26.2588 C   0  0  0  0  0  0  0  0  0  0  0  0
    7.0525   -5.4598  -26.0540 C   0  0  0  0  0  0  0  0  0  0  0  0
    7.5811   -5.3976  -20.7976 C   0  0  0  0  0  0  0  0  0  0  0  0
    8.0140   -6.2451  -21.9826 C   0  0  0  0  0  0  0  0  0  0  0  0
    7.6442   -5.5655  -23.2325 N   0  0  0  0  0  0  0  0  0  0  0  0
    8.6842   -5.1936  -24.2025 C   0  0  0  0  0  0  0  0  0  0  0  0
    8.4127   -5.8875  -25.5274 C   0  0  0  0  0  0  0  0  0  0  0  0
    3.1049   -7.0941  -24.3468 C   0  0  0  0  0  0  0  0  0  0  0  0
    2.0422   -9.1767  -27.2528 C   0  0  0  0  0  0  0  0  0  0  0  0
    2.8824   -8.6477  -28.2961 C   0  0  0  0  0  0  0  0  0  0  0  0
    3.7774   -7.6183  -28.0147 N   0  0  0  0  0  0  0  0  0  0  0  0
    3.8598   -7.1005  -26.7244 C   0  0  0  0  0  0  0  0  0  0  0  0
    3.0197   -7.6294  -25.6811 C   0  0  0  0  0  0  0  0  0  0  0  0
 18 19  1  0  0  0
 19 20  1  0  0  0
 20 21  1  0  0  0
 21 22  1  0  0  0
 22 23  1  0  0  0
 23 24  1  0  0  0
 19 24  1  0  0  0
 22  1  1  0  0  0
  1  2  1  0  0  0
  2  3  2  0  0  0
  3  4  1  0  0  0
  4  5  2  0  0  0
  1  5  1  0  0  0
  4 25  1  0  0  0
 25 26  2  0  0  0
 26 27  1  0  0  0
 27 28  2  0  0  0
 28 29  1  0  0  0
 29 30  2  0  0  0
 25 30  1  0  0  0
  3  6  1  0  0  0
  6  7  2  0  0  0
  7  8  1  0  0  0
  8  9  2  0  0  0
  9 10  1  0  0  0
 10 11  2  0  0  0
  6 11  1  0  0  0
  9 12  1  0  0  0
 12 13  2  0  0  0
 13 14  1  0  0  0
 12 15  1  0  0  0
 15 16  1  0  0  0
  8 16  1  0  0  0
 14 17  1  0  0  0
M  END
> <minimizedAffinity>
-7.91093

$$$$
mol_11717001_9


 30 34  0  0  0  0  0  0  0  0999 V2000
    6.3708   -5.6185  -23.8333 N   0  0  0  0  0  0  0  0  0  0  0  0
    2.2978   -5.9714  -24.9060 C   0  0  0  0  0  0  0  0  0  0  0  0
    3.6808   -5.8249  -24.5322 C   0  0  0  0  0  0  0  0  0  0  0  0
    4.5962   -6.9216  -24.7149 C   0  0  0  0  0  0  0  0  0  0  0  0
    5.9339   -6.7800  -24.3533 N   0  0  0  0  0  0  0  0  0  0  0  0
    4.1745   -4.5128  -23.9448 C   0  0  0  0  0  0  0  0  0  0  0  0
   -0.5393   -3.3215  -22.1209 C   0  0  0  0  0  0  0  0  0  0  0  0
   -1.1582   -2.4271  -21.1767 C   0  0  0  0  0  0  0  0  0  0  0  0
    1.2539   -3.5958  -21.6757 C   0  0  0  0  0  0  0  0  0  0  0  0
    2.0715   -4.3159  -22.6176 C   0  0  0  0  0  0  0  0  0  0  0  0
    3.3568   -3.7927  -23.0029 C   0  0  0  0  0  0  0  0  0  0  0  0
    1.7474   -2.2837  -21.0882 C   0  0  0  0  0  0  0  0  0  0  0  0
    2.9216   -1.8058  -21.4401 N   0  0  0  0  0  0  0  0  0  0  0  0
    3.6994   -2.4908  -22.3361 O   0  0  0  0  0  0  0  0  0  0  0  0
    0.8845   -1.5238  -20.0942 C   0  0  0  0  0  0  0  0  0  0  0  0
   -0.4388   -1.1590  -20.7470 C   0  0  0  0  0  0  0  0  0  0  0  0
    4.5919   -2.1274  -22.6037 H   0  0  0  0  0  0  0  0  0  0  0  0
    6.7536   -3.6910  -26.2898 C   0  0  0  0  0  0  0  0  0  0  0  0
    7.2874   -5.1142  -26.2918 C   0  0  0  0  0  0  0  0  0  0  0  0
    7.4929   -5.7402  -21.0498 C   0  0  0  0  0  0  0  0  0  0  0  0
    8.2566   -6.1825  -22.2872 C   0  0  0  0  0  0  0  0  0  0  0  0
    7.7345   -5.4740  -23.4647 N   0  0  0  0  0  0  0  0  0  0  0  0
    8.6240   -4.6159  -24.2605 C   0  0  0  0  0  0  0  0  0  0  0  0
    8.6825   -5.1330  -25.6886 C   0  0  0  0  0  0  0  0  0  0  0  0
    4.1027   -8.2338  -25.3023 C   0  0  0  0  0  0  0  0  0  0  0  0
    3.8646   -9.9108  -28.6254 C   0  0  0  0  0  0  0  0  0  0  0  0
    4.4411   -8.9089  -29.4844 C   0  0  0  0  0  0  0  0  0  0  0  0
    4.8933   -7.7065  -28.9461 N   0  0  0  0  0  0  0  0  0  0  0  0
    4.7881   -7.4732  -27.5771 C   0  0  0  0  0  0  0  0  0  0  0  0
    4.2116   -8.4750  -26.7180 C   0  0  0  0  0  0  0  0  0  0  0  0
 18 19  1  0  0  0
 19 20  1  0  0  0
 20 21  1  0  0  0
 21 22  1  0  0  0
 22 23  1  0  0  0
 23 24  1  0  0  0
 19 24  1  0  0  0
 22  1  1  0  0  0
  1  2  1  0  0  0
  2  3  2  0  0  0
  3  4  1  0  0  0
  4  5  2  0  0  0
  1  5  1  0  0  0
  4 25  1  0  0  0
 25 26  2  0  0  0
 26 27  1  0  0  0
 27 28  2  0  0  0
 28 29  1  0  0  0
 29 30  2  0  0  0
 25 30  1  0  0  0
  3  6  1  0  0  0
  6  7  2  0  0  0
  7  8  1  0  0  0
  8  9  2  0  0  0
  9 10  1  0  0  0
 10 11  2  0  0  0
  6 11  1  0  0  0
  9 12  1  0  0  0
 12 13  2  0  0  0
 13 14  1  0  0  0
 12 15  1  0  0  0
 15 16  1  0  0  0
  8 16  1  0  0  0
 14 17  1  0  0  0
M  END
> <minimizedAffinity>
-7.41212

$$$$
mol_11717001_9


 30 34  0  0  0  0  0  0  0  0999 V2000
    6.7784   -4.3844  -21.2734 N   0  0  0  0  0  0  0  0  0  0  0  0
    4.1702   -5.9193  -24.2240 C   0  0  0  0  0  0  0  0  0  0  0  0
    5.0746   -5.4193  -23.2210 C   0  0  0  0  0  0  0  0  0  0  0  0
    4.8310   -4.1406  -22.6048 C   0  0  0  0  0  0  0  0  0  0  0  0
    5.7057   -3.6570  -21.6348 N   0  0  0  0  0  0  0  0  0  0  0  0
    6.2864   -6.2411  -22.8127 C   0  0  0  0  0  0  0  0  0  0  0  0
    5.8966   -9.2751  -27.0089 C   0  0  0  0  0  0  0  0  0  0  0  0
    6.6854  -10.2166  -27.7610 C   0  0  0  0  0  0  0  0  0  0  0  0
    7.0063   -8.1191  -26.0490 C   0  0  0  0  0  0  0  0  0  0  0  0
    6.3836   -7.2336  -25.0991 C   0  0  0  0  0  0  0  0  0  0  0  0
    6.9091   -7.1267  -23.7625 C   0  0  0  0  0  0  0  0  0  0  0  0
    8.2180   -8.9410  -25.6408 C   0  0  0  0  0  0  0  0  0  0  0  0
    8.6981   -8.8433  -24.4198 N   0  0  0  0  0  0  0  0  0  0  0  0
    8.1058   -8.0009  -23.5162 O   0  0  0  0  0  0  0  0  0  0  0  0
    8.8752   -9.8756  -26.6432 C   0  0  0  0  0  0  0  0  0  0  0  0
    7.8660  -10.9141  -27.1050 C   0  0  0  0  0  0  0  0  0  0  0  0
    8.4706   -7.9267  -22.5880 H   0  0  0  0  0  0  0  0  0  0  0  0
    8.6183   -3.2958  -23.5812 C   0  0  0  0  0  0  0  0  0  0  0  0
    8.9862   -4.5283  -22.7712 C   0  0  0  0  0  0  0  0  0  0  0  0
    6.0441   -3.4194  -18.5254 C   0  0  0  0  0  0  0  0  0  0  0  0
    7.3681   -4.0871  -18.8592 C   0  0  0  0  0  0  0  0  0  0  0  0
    7.6702   -3.8914  -20.2844 N   0  0  0  0  0  0  0  0  0  0  0  0
    8.8953   -3.1851  -20.6859 C   0  0  0  0  0  0  0  0  0  0  0  0
    9.7581   -4.1078  -21.5312 C   0  0  0  0  0  0  0  0  0  0  0  0
    3.6193   -3.3187  -23.0130 C   0  0  0  0  0  0  0  0  0  0  0  0
    0.7802   -1.5108  -21.4059 C   0  0  0  0  0  0  0  0  0  0  0  0
    1.0494   -1.7534  -20.0120 C   0  0  0  0  0  0  0  0  0  0  0  0
    2.1598   -2.5065  -19.6380 N   0  0  0  0  0  0  0  0  0  0  0  0
    3.0097   -3.0250  -20.6120 C   0  0  0  0  0  0  0  0  0  0  0  0
    2.7404   -2.7826  -22.0058 C   0  0  0  0  0  0  0  0  0  0  0  0
 18 19  1  0  0  0
 19 20  1  0  0  0
 20 21  1  0  0  0
 21 22  1  0  0  0
 22 23  1  0  0  0
 23 24  1  0  0  0
 19 24  1  0  0  0
 22  1  1  0  0  0
  1  2  1  0  0  0
  2  3  2  0  0  0
  3  4  1  0  0  0
  4  5  2  0  0  0
  1  5  1  0  0  0
  4 25  1  0  0  0
 25 26  2  0  0  0
 26 27  1  0  0  0
 27 28  2  0  0  0
 28 29  1  0  0  0
 29 30  2  0  0  0
 25 30  1  0  0  0
  3  6  1  0  0  0
  6  7  2  0  0  0
  7  8  1  0  0  0
  8  9  2  0  0  0
  9 10  1  0  0  0
 10 11  2  0  0  0
  6 11  1  0  0  0
  9 12  1  0  0  0
 12 13  2  0  0  0
 13 14  1  0  0  0
 12 15  1  0  0  0
 15 16  1  0  0  0
  8 16  1  0  0  0
 14 17  1  0  0  0
M  END
> <minimizedAffinity>
-7.28096

$$$$
mol_11717001_9


 30 34  0  0  0  0  0  0  0  0999 V2000
    6.0505   -5.3200  -23.6728 N   0  0  0  0  0  0  0  0  0  0  0  0
    3.0106   -3.4402  -25.9289 C   0  0  0  0  0  0  0  0  0  0  0  0
    4.0655   -4.0656  -25.1738 C   0  0  0  0  0  0  0  0  0  0  0  0
    3.7488   -5.0599  -24.1813 C   0  0  0  0  0  0  0  0  0  0  0  0
    4.7690   -5.6647  -23.4510 N   0  0  0  0  0  0  0  0  0  0  0  0
    5.5133   -3.6762  -25.4244 C   0  0  0  0  0  0  0  0  0  0  0  0
    5.8586   -6.8200  -29.5430 C   0  0  0  0  0  0  0  0  0  0  0  0
    6.7019   -7.0397  -30.6897 C   0  0  0  0  0  0  0  0  0  0  0  0
    6.0345   -5.0625  -28.9351 C   0  0  0  0  0  0  0  0  0  0  0  0
    5.4035   -4.7234  -27.6857 C   0  0  0  0  0  0  0  0  0  0  0  0
    6.1443   -4.0154  -26.6738 C   0  0  0  0  0  0  0  0  0  0  0  0
    7.4823   -4.6732  -29.1858 C   0  0  0  0  0  0  0  0  0  0  0  0
    8.1589   -4.0263  -28.2613 N   0  0  0  0  0  0  0  0  0  0  0  0
    7.5587   -3.7037  -27.0728 O   0  0  0  0  0  0  0  0  0  0  0  0
    8.1482   -5.0311  -30.5044 C   0  0  0  0  0  0  0  0  0  0  0  0
    8.1375   -6.5404  -30.6842 C   0  0  0  0  0  0  0  0  0  0  0  0
    8.0731   -3.2121  -26.3701 H   0  0  0  0  0  0  0  0  0  0  0  0
    5.2967   -3.4792  -21.2357 C   0  0  0  0  0  0  0  0  0  0  0  0
    6.5415   -3.2367  -22.0736 C   0  0  0  0  0  0  0  0  0  0  0  0
    7.0222   -8.1474  -23.9621 C   0  0  0  0  0  0  0  0  0  0  0  0
    7.9122   -6.9880  -23.5451 C   0  0  0  0  0  0  0  0  0  0  0  0
    7.0907   -5.9366  -22.9283 N   0  0  0  0  0  0  0  0  0  0  0  0
    7.3458   -5.5236  -21.5407 C   0  0  0  0  0  0  0  0  0  0  0  0
    7.6980   -4.0454  -21.5088 C   0  0  0  0  0  0  0  0  0  0  0  0
    2.3010   -5.4494  -23.9306 C   0  0  0  0  0  0  0  0  0  0  0  0
   -0.6317   -4.2464  -21.9649 C   0  0  0  0  0  0  0  0  0  0  0  0
   -0.0764   -3.0845  -21.3199 C   0  0  0  0  0  0  0  0  0  0  0  0
    1.2502   -2.7277  -21.5497 N   0  0  0  0  0  0  0  0  0  0  0  0
    2.0398   -3.4945  -22.4031 C   0  0  0  0  0  0  0  0  0  0  0  0
    1.4846   -4.6564  -23.0481 C   0  0  0  0  0  0  0  0  0  0  0  0
 18 19  1  0  0  0
 19 20  1  0  0  0
 20 21  1  0  0  0
 21 22  1  0  0  0
 22 23  1  0  0  0
 23 24  1  0  0  0
 19 24  1  0  0  0
 22  1  1  0  0  0
  1  2  1  0  0  0
  2  3  2  0  0  0
  3  4  1  0  0  0
  4  5  2  0  0  0
  1  5  1  0  0  0
  4 25  1  0  0  0
 25 26  2  0  0  0
 26 27  1  0  0  0
 27 28  2  0  0  0
 28 29  1  0  0  0
 29 30  2  0  0  0
 25 30  1  0  0  0
  3  6  1  0  0  0
  6  7  2  0  0  0
  7  8  1  0  0  0
  8  9  2  0  0  0
  9 10  1  0  0  0
 10 11  2  0  0  0
  6 11  1  0  0  0
  9 12  1  0  0  0
 12 13  2  0  0  0
 13 14  1  0  0  0
 12 15  1  0  0  0
 15 16  1  0  0  0
  8 16  1  0  0  0
 14 17  1  0  0  0
M  END
> <minimizedAffinity>
-7.15843

$$$$
mol_11717001_9


 30 34  0  0  0  0  0  0  0  0999 V2000
    5.9499   -5.1650  -24.9796 N   0  0  0  0  0  0  0  0  0  0  0  0
    2.3334   -6.8161  -23.5445 C   0  0  0  0  0  0  0  0  0  0  0  0
    3.5756   -6.2793  -24.0374 C   0  0  0  0  0  0  0  0  0  0  0  0
    3.7656   -4.8536  -24.1100 C   0  0  0  0  0  0  0  0  0  0  0  0
    4.9669   -4.3345  -24.5868 N   0  0  0  0  0  0  0  0  0  0  0  0
    4.6860   -7.2176  -24.4811 C   0  0  0  0  0  0  0  0  0  0  0  0
    1.9427   -8.8568  -28.5741 C   0  0  0  0  0  0  0  0  0  0  0  0
    2.1376   -9.5534  -29.8196 C   0  0  0  0  0  0  0  0  0  0  0  0
    3.5409   -8.0684  -28.0144 C   0  0  0  0  0  0  0  0  0  0  0  0
    3.5719   -7.4885  -26.6965 C   0  0  0  0  0  0  0  0  0  0  0  0
    4.6551   -7.7976  -25.7991 C   0  0  0  0  0  0  0  0  0  0  0  0
    4.6514   -9.0068  -28.4582 C   0  0  0  0  0  0  0  0  0  0  0  0
    5.6409   -9.2890  -27.6384 N   0  0  0  0  0  0  0  0  0  0  0  0
    5.6704   -8.7373  -26.3847 O   0  0  0  0  0  0  0  0  0  0  0  0
    4.6187   -9.6188  -29.8491 C   0  0  0  0  0  0  0  0  0  0  0  0
    3.3534  -10.4458  -30.0092 C   0  0  0  0  0  0  0  0  0  0  0  0
    6.4225   -8.9520  -25.7615 H   0  0  0  0  0  0  0  0  0  0  0  0
    7.4078   -6.4796  -22.5214 C   0  0  0  0  0  0  0  0  0  0  0  0
    7.1550   -4.9829  -22.6019 C   0  0  0  0  0  0  0  0  0  0  0  0
    6.6743   -4.6852  -27.8548 C   0  0  0  0  0  0  0  0  0  0  0  0
    7.1927   -3.8410  -26.7021 C   0  0  0  0  0  0  0  0  0  0  0  0
    7.1747   -4.6358  -25.4657 N   0  0  0  0  0  0  0  0  0  0  0  0
    8.4246   -4.8829  -24.7324 C   0  0  0  0  0  0  0  0  0  0  0  0
    8.3095   -4.3123  -23.3284 C   0  0  0  0  0  0  0  0  0  0  0  0
    2.6551   -3.9152  -23.6664 C   0  0  0  0  0  0  0  0  0  0  0  0
    1.8411   -1.6898  -20.7860 C   0  0  0  0  0  0  0  0  0  0  0  0
    2.9966   -1.8847  -19.9488 C   0  0  0  0  0  0  0  0  0  0  0  0
    4.0141   -2.7446  -20.3554 N   0  0  0  0  0  0  0  0  0  0  0  0
    3.9141   -3.4159  -21.5716 C   0  0  0  0  0  0  0  0  0  0  0  0
    2.7586   -3.2211  -22.4088 C   0  0  0  0  0  0  0  0  0  0  0  0
 18 19  1  0  0  0
 19 20  1  0  0  0
 20 21  1  0  0  0
 21 22  1  0  0  0
 22 23  1  0  0  0
 23 24  1  0  0  0
 19 24  1  0  0  0
 22  1  1  0  0  0
  1  2  1  0  0  0
  2  3  2  0  0  0
  3  4  1  0  0  0
  4  5  2  0  0  0
  1  5  1  0  0  0
  4 25  1  0  0  0
 25 26  2  0  0  0
 26 27  1  0  0  0
 27 28  2  0  0  0
 28 29  1  0  0  0
 29 30  2  0  0  0
 25 30  1  0  0  0
  3  6  1  0  0  0
  6  7  2  0  0  0
  7  8  1  0  0  0
  8  9  2  0  0  0
  9 10  1  0  0  0
 10 11  2  0  0  0
  6 11  1  0  0  0
  9 12  1  0  0  0
 12 13  2  0  0  0
 13 14  1  0  0  0
 12 15  1  0  0  0
 15 16  1  0  0  0
  8 16  1  0  0  0
 14 17  1  0  0  0
M  END
> <minimizedAffinity>
-7.14540

$$$$
mol_135438492_10


 30 34  0  0  0  0  0  0  0  0999 V2000
    6.2762   -5.2682  -23.5013 N   0  0  0  0  0  0  0  0  0  0  0  0
    2.2369   -4.3076  -24.2928 C   0  0  0  0  0  0  0  0  0  0  0  0
    3.6188   -4.6077  -24.0198 C   0  0  0  0  0  0  0  0  0  0  0  0
    4.0754   -5.9735  -24.0338 C   0  0  0  0  0  0  0  0  0  0  0  0
    5.4119   -6.2637  -23.7697 N   0  0  0  0  0  0  0  0  0  0  0  0
    4.5953   -3.4829  -23.7168 C   0  0  0  0  0  0  0  0  0  0  0  0
    2.3294   -2.4709  -19.1553 C   0  0  0  0  0  0  0  0  0  0  0  0
    2.5999   -1.7724  -17.9252 C   0  0  0  0  0  0  0  0  0  0  0  0
    3.9275   -2.9298  -20.0063 C   0  0  0  0  0  0  0  0  0  0  0  0
    3.8417   -3.4694  -21.3388 C   0  0  0  0  0  0  0  0  0  0  0  0
    4.6811   -2.9433  -22.3842 C   0  0  0  0  0  0  0  0  0  0  0  0
    4.9041   -1.8052  -19.7032 C   0  0  0  0  0  0  0  0  0  0  0  0
    5.6709   -1.3246  -20.6582 N   0  0  0  0  0  0  0  0  0  0  0  0
    5.5892   -1.8379  -21.9258 O   0  0  0  0  0  0  0  0  0  0  0  0
    4.9947   -1.2356  -18.2969 C   0  0  0  0  0  0  0  0  0  0  0  0
    3.6439   -0.6682  -17.8920 C   0  0  0  0  0  0  0  0  0  0  0  0
    6.1721   -1.4727  -22.6516 H   0  0  0  0  0  0  0  0  0  0  0  0
    7.0293   -3.9573  -26.2601 C   0  0  0  0  0  0  0  0  0  0  0  0
    7.0441   -5.4631  -26.0531 C   0  0  0  0  0  0  0  0  0  0  0  0
    7.5779   -5.3925  -20.7974 C   0  0  0  0  0  0  0  0  0  0  0  0
    8.0103   -6.2417  -21.9816 C   0  0  0  0  0  0  0  0  0  0  0  0
    7.6386   -5.5640  -23.2321 N   0  0  0  0  0  0  0  0  0  0  0  0
    8.6773   -5.1927  -24.2037 C   0  0  0  0  0  0  0  0  0  0  0  0
    8.4052   -5.8889  -25.5272 C   0  0  0  0  0  0  0  0  0  0  0  0
    3.0989   -7.0983  -24.3368 C   0  0  0  0  0  0  0  0  0  0  0  0
    2.0296   -9.1851  -27.2373 C   0  0  0  0  0  0  0  0  0  0  0  0
    2.8661   -8.6564  -28.2837 C   0  0  0  0  0  0  0  0  0  0  0  0
    3.7609   -7.6258  -28.0061 N   0  0  0  0  0  0  0  0  0  0  0  0
    3.8467   -7.1065  -26.7165 C   0  0  0  0  0  0  0  0  0  0  0  0
    3.0103   -7.6352  -25.6702 C   0  0  0  0  0  0  0  0  0  0  0  0
 18 19  1  0  0  0
 19 20  1  0  0  0
 20 21  1  0  0  0
 21 22  1  0  0  0
 22 23  1  0  0  0
 23 24  1  0  0  0
 19 24  1  0  0  0
 22  1  1  0  0  0
  1  2  1  0  0  0
  2  3  2  0  0  0
  3  4  1  0  0  0
  4  5  2  0  0  0
  1  5  1  0  0  0
  4 25  1  0  0  0
 25 26  2  0  0  0
 26 27  1  0  0  0
 27 28  2  0  0  0
 28 29  1  0  0  0
 29 30  2  0  0  0
 25 30  1  0  0  0
  3  6  1  0  0  0
  6  7  2  0  0  0
  7  8  1  0  0  0
  8  9  2  0  0  0
  9 10  1  0  0  0
 10 11  2  0  0  0
  6 11  1  0  0  0
  9 12  1  0  0  0
 12 13  2  0  0  0
 13 14  1  0  0  0
 12 15  1  0  0  0
 15 16  1  0  0  0
  8 16  1  0  0  0
 14 17  1  0  0  0
M  END
> <minimizedAffinity>
-7.91167

$$$$
mol_135438492_10


 30 34  0  0  0  0  0  0  0  0999 V2000
    6.3571   -5.6147  -23.8265 N   0  0  0  0  0  0  0  0  0  0  0  0
    2.2796   -5.9776  -24.8784 C   0  0  0  0  0  0  0  0  0  0  0  0
    3.6641   -5.8277  -24.5116 C   0  0  0  0  0  0  0  0  0  0  0  0
    4.5819   -6.9212  -24.7016 C   0  0  0  0  0  0  0  0  0  0  0  0
    5.9210   -6.7762  -24.3468 N   0  0  0  0  0  0  0  0  0  0  0  0
    4.1568   -4.5154  -23.9238 C   0  0  0  0  0  0  0  0  0  0  0  0
   -0.5617   -3.3190  -22.1158 C   0  0  0  0  0  0  0  0  0  0  0  0
   -1.1830   -2.4233  -21.1745 C   0  0  0  0  0  0  0  0  0  0  0  0
    1.2298   -3.5943  -21.6647 C   0  0  0  0  0  0  0  0  0  0  0  0
    2.0499   -4.3157  -22.6034 C   0  0  0  0  0  0  0  0  0  0  0  0
    3.3368   -3.7938  -22.9851 C   0  0  0  0  0  0  0  0  0  0  0  0
    1.7225   -2.2820  -21.0770 C   0  0  0  0  0  0  0  0  0  0  0  0
    2.8981   -1.8052  -21.4257 N   0  0  0  0  0  0  0  0  0  0  0  0
    3.6782   -2.4916  -22.3186 O   0  0  0  0  0  0  0  0  0  0  0  0
    0.8571   -1.5204  -20.0863 C   0  0  0  0  0  0  0  0  0  0  0  0
   -0.4640   -1.1554  -20.7436 C   0  0  0  0  0  0  0  0  0  0  0  0
    4.5718   -2.1292  -22.5836 H   0  0  0  0  0  0  0  0  0  0  0  0
    6.7255   -3.6944  -26.2909 C   0  0  0  0  0  0  0  0  0  0  0  0
    7.2615   -5.1168  -26.2908 C   0  0  0  0  0  0  0  0  0  0  0  0
    7.4922   -5.7255  -21.0479 C   0  0  0  0  0  0  0  0  0  0  0  0
    8.2510   -6.1708  -22.2875 C   0  0  0  0  0  0  0  0  0  0  0  0
    7.7222   -5.4668  -23.4647 N   0  0  0  0  0  0  0  0  0  0  0  0
    8.6066   -4.6098  -24.2674 C   0  0  0  0  0  0  0  0  0  0  0  0
    8.6594   -5.1315  -25.6941 C   0  0  0  0  0  0  0  0  0  0  0  0
    4.0892   -8.2336  -25.2894 C   0  0  0  0  0  0  0  0  0  0  0  0
    3.8568   -9.9122  -28.6120 C   0  0  0  0  0  0  0  0  0  0  0  0
    4.4351   -8.9108  -29.4705 C   0  0  0  0  0  0  0  0  0  0  0  0
    4.8866   -7.7083  -28.9320 N   0  0  0  0  0  0  0  0  0  0  0  0
    4.7789   -7.4742  -27.5632 C   0  0  0  0  0  0  0  0  0  0  0  0
    4.2006   -8.4755  -26.7047 C   0  0  0  0  0  0  0  0  0  0  0  0
 18 19  1  0  0  0
 19 20  1  0  0  0
 20 21  1  0  0  0
 21 22  1  0  0  0
 22 23  1  0  0  0
 23 24  1  0  0  0
 19 24  1  0  0  0
 22  1  1  0  0  0
  1  2  1  0  0  0
  2  3  2  0  0  0
  3  4  1  0  0  0
  4  5  2  0  0  0
  1  5  1  0  0  0
  4 25  1  0  0  0
 25 26  2  0  0  0
 26 27  1  0  0  0
 27 28  2  0  0  0
 28 29  1  0  0  0
 29 30  2  0  0  0
 25 30  1  0  0  0
  3  6  1  0  0  0
  6  7  2  0  0  0
  7  8  1  0  0  0
  8  9  2  0  0  0
  9 10  1  0  0  0
 10 11  2  0  0  0
  6 11  1  0  0  0
  9 12  1  0  0  0
 12 13  2  0  0  0
 13 14  1  0  0  0
 12 15  1  0  0  0
 15 16  1  0  0  0
  8 16  1  0  0  0
 14 17  1  0  0  0
M  END
> <minimizedAffinity>
-7.41474

$$$$
mol_135438492_10


 30 34  0  0  0  0  0  0  0  0999 V2000
    4.5510   -5.7311  -24.3749 N   0  0  0  0  0  0  0  0  0  0  0  0
    8.6970   -4.9179  -24.2562 C   0  0  0  0  0  0  0  0  0  0  0  0
    7.2852   -5.1942  -24.3246 C   0  0  0  0  0  0  0  0  0  0  0  0
    6.5259   -5.3678  -23.1131 C   0  0  0  0  0  0  0  0  0  0  0  0
    5.1605   -5.6351  -23.1793 N   0  0  0  0  0  0  0  0  0  0  0  0
    6.5965   -5.3025  -25.6753 C   0  0  0  0  0  0  0  0  0  0  0  0
    8.3794  -10.1215  -26.4258 C   0  0  0  0  0  0  0  0  0  0  0  0
    8.1260  -11.2695  -27.2577 C   0  0  0  0  0  0  0  0  0  0  0  0
    6.8535   -9.0499  -26.3161 C   0  0  0  0  0  0  0  0  0  0  0  0
    6.9853   -7.7665  -25.6759 C   0  0  0  0  0  0  0  0  0  0  0  0
    6.4647   -6.5858  -26.3155 C   0  0  0  0  0  0  0  0  0  0  0  0
    6.1648   -9.1581  -27.6667 C   0  0  0  0  0  0  0  0  0  0  0  0
    5.6891   -8.0796  -28.2510 N   0  0  0  0  0  0  0  0  0  0  0  0
    5.8145   -6.8588  -27.6420 O   0  0  0  0  0  0  0  0  0  0  0  0
    6.0256  -10.5126  -28.3425 C   0  0  0  0  0  0  0  0  0  0  0  0
    7.4056  -11.1017  -28.5856 C   0  0  0  0  0  0  0  0  0  0  0  0
    5.4529   -6.0391  -28.0860 H   0  0  0  0  0  0  0  0  0  0  0  0
    4.0988   -2.7864  -25.3852 C   0  0  0  0  0  0  0  0  0  0  0  0
    3.7400   -3.2172  -23.9723 C   0  0  0  0  0  0  0  0  0  0  0  0
    3.2756   -8.3854  -24.9659 C   0  0  0  0  0  0  0  0  0  0  0  0
    2.6509   -7.3308  -24.0668 C   0  0  0  0  0  0  0  0  0  0  0  0
    3.1591   -6.0035  -24.4424 N   0  0  0  0  0  0  0  0  0  0  0  0
    2.2262   -4.9583  -24.8877 C   0  0  0  0  0  0  0  0  0  0  0  0
    2.3214   -3.7629  -23.9538 C   0  0  0  0  0  0  0  0  0  0  0  0
    7.2146   -5.2595  -21.7624 C   0  0  0  0  0  0  0  0  0  0  0  0
    7.5147   -2.8296  -18.9488 C   0  0  0  0  0  0  0  0  0  0  0  0
    6.6939   -1.7473  -19.4274 C   0  0  0  0  0  0  0  0  0  0  0  0
    6.0629   -1.8464  -20.6650 N   0  0  0  0  0  0  0  0  0  0  0  0
    6.2255   -2.9924  -21.4399 C   0  0  0  0  0  0  0  0  0  0  0  0
    7.0463   -4.0747  -20.9613 C   0  0  0  0  0  0  0  0  0  0  0  0
 18 19  1  0  0  0
 19 20  1  0  0  0
 20 21  1  0  0  0
 21 22  1  0  0  0
 22 23  1  0  0  0
 23 24  1  0  0  0
 19 24  1  0  0  0
 22  1  1  0  0  0
  1  2  1  0  0  0
  2  3  2  0  0  0
  3  4  1  0  0  0
  4  5  2  0  0  0
  1  5  1  0  0  0
  4 25  1  0  0  0
 25 26  2  0  0  0
 26 27  1  0  0  0
 27 28  2  0  0  0
 28 29  1  0  0  0
 29 30  2  0  0  0
 25 30  1  0  0  0
  3  6  1  0  0  0
  6  7  2  0  0  0
  7  8  1  0  0  0
  8  9  2  0  0  0
  9 10  1  0  0  0
 10 11  2  0  0  0
  6 11  1  0  0  0
  9 12  1  0  0  0
 12 13  2  0  0  0
 13 14  1  0  0  0
 12 15  1  0  0  0
 15 16  1  0  0  0
  8 16  1  0  0  0
 14 17  1  0  0  0
M  END
> <minimizedAffinity>
-7.39143

$$$$
mol_135438492_10


 30 34  0  0  0  0  0  0  0  0999 V2000
    6.0548   -5.3263  -23.6666 N   0  0  0  0  0  0  0  0  0  0  0  0
    3.0011   -3.4667  -25.9209 C   0  0  0  0  0  0  0  0  0  0  0  0
    4.0606   -4.0852  -25.1666 C   0  0  0  0  0  0  0  0  0  0  0  0
    3.7505   -5.0764  -24.1688 C   0  0  0  0  0  0  0  0  0  0  0  0
    4.7753   -5.6745  -23.4393 N   0  0  0  0  0  0  0  0  0  0  0  0
    5.5062   -3.6919  -25.4235 C   0  0  0  0  0  0  0  0  0  0  0  0
    5.8119   -6.7618  -29.6005 C   0  0  0  0  0  0  0  0  0  0  0  0
    6.6444   -6.9615  -30.7586 C   0  0  0  0  0  0  0  0  0  0  0  0
    5.9942   -5.0156  -28.9632 C   0  0  0  0  0  0  0  0  0  0  0  0
    5.3750   -4.6985  -27.7022 C   0  0  0  0  0  0  0  0  0  0  0  0
    6.1255   -4.0089  -26.6846 C   0  0  0  0  0  0  0  0  0  0  0  0
    7.4398   -4.6223  -29.2202 C   0  0  0  0  0  0  0  0  0  0  0  0
    8.1253   -3.9922  -28.2907 N   0  0  0  0  0  0  0  0  0  0  0  0
    7.5363   -3.6906  -27.0911 O   0  0  0  0  0  0  0  0  0  0  0  0
    8.0934   -4.9568  -30.5511 C   0  0  0  0  0  0  0  0  0  0  0  0
    8.0802   -6.4627  -30.7576 C   0  0  0  0  0  0  0  0  0  0  0  0
    8.0573   -3.2117  -26.3846 H   0  0  0  0  0  0  0  0  0  0  0  0
    5.3066   -3.4731  -21.2371 C   0  0  0  0  0  0  0  0  0  0  0  0
    6.5474   -3.2325  -22.0816 C   0  0  0  0  0  0  0  0  0  0  0  0
    7.0321   -8.1529  -23.9437 C   0  0  0  0  0  0  0  0  0  0  0  0
    7.9212   -6.9889  -23.5371 C   0  0  0  0  0  0  0  0  0  0  0  0
    7.0995   -5.9360  -22.9230 N   0  0  0  0  0  0  0  0  0  0  0  0
    7.3594   -5.5144  -21.5389 C   0  0  0  0  0  0  0  0  0  0  0  0
    7.7081   -4.0351  -21.5169 C   0  0  0  0  0  0  0  0  0  0  0  0
    2.3049   -5.4697  -23.9118 C   0  0  0  0  0  0  0  0  0  0  0  0
   -0.6345   -4.2517  -21.9656 C   0  0  0  0  0  0  0  0  0  0  0  0
   -0.0857   -3.0766  -21.3393 C   0  0  0  0  0  0  0  0  0  0  0  0
    1.2389   -2.7162  -21.5747 N   0  0  0  0  0  0  0  0  0  0  0  0
    2.0328   -3.4922  -22.4159 C   0  0  0  0  0  0  0  0  0  0  0  0
    1.4841   -4.6672  -23.0421 C   0  0  0  0  0  0  0  0  0  0  0  0
 18 19  1  0  0  0
 19 20  1  0  0  0
 20 21  1  0  0  0
 21 22  1  0  0  0
 22 23  1  0  0  0
 23 24  1  0  0  0
 19 24  1  0  0  0
 22  1  1  0  0  0
  1  2  1  0  0  0
  2  3  2  0  0  0
  3  4  1  0  0  0
  4  5  2  0  0  0
  1  5  1  0  0  0
  4 25  1  0  0  0
 25 26  2  0  0  0
 26 27  1  0  0  0
 27 28  2  0  0  0
 28 29  1  0  0  0
 29 30  2  0  0  0
 25 30  1  0  0  0
  3  6  1  0  0  0
  6  7  2  0  0  0
  7  8  1  0  0  0
  8  9  2  0  0  0
  9 10  1  0  0  0
 10 11  2  0  0  0
  6 11  1  0  0  0
  9 12  1  0  0  0
 12 13  2  0  0  0
 13 14  1  0  0  0
 12 15  1  0  0  0
 15 16  1  0  0  0
  8 16  1  0  0  0
 14 17  1  0  0  0
M  END
> <minimizedAffinity>
-7.16254

$$$$
mol_135438492_10


 30 34  0  0  0  0  0  0  0  0999 V2000
    5.9438   -5.1677  -24.9838 N   0  0  0  0  0  0  0  0  0  0  0  0
    2.3272   -6.8194  -23.5498 C   0  0  0  0  0  0  0  0  0  0  0  0
    3.5694   -6.2824  -24.0424 C   0  0  0  0  0  0  0  0  0  0  0  0
    3.7600   -4.8566  -24.1129 C   0  0  0  0  0  0  0  0  0  0  0  0
    4.9614   -4.3374  -24.5894 N   0  0  0  0  0  0  0  0  0  0  0  0
    4.6793   -7.2205  -24.4879 C   0  0  0  0  0  0  0  0  0  0  0  0
    1.9312   -8.8577  -28.5785 C   0  0  0  0  0  0  0  0  0  0  0  0
    2.1245   -9.5537  -29.8244 C   0  0  0  0  0  0  0  0  0  0  0  0
    3.5300   -8.0696  -28.0203 C   0  0  0  0  0  0  0  0  0  0  0  0
    3.5626   -7.4903  -26.7021 C   0  0  0  0  0  0  0  0  0  0  0  0
    4.6468   -7.7998  -25.8061 C   0  0  0  0  0  0  0  0  0  0  0  0
    4.6399   -9.0076  -28.4657 C   0  0  0  0  0  0  0  0  0  0  0  0
    5.6304   -9.2904  -27.6472 N   0  0  0  0  0  0  0  0  0  0  0  0
    5.6614   -8.7393  -26.3933 O   0  0  0  0  0  0  0  0  0  0  0  0
    4.6056   -9.6190  -29.8569 C   0  0  0  0  0  0  0  0  0  0  0  0
    3.3401  -10.4459  -30.0159 C   0  0  0  0  0  0  0  0  0  0  0  0
    6.4142   -8.9541  -25.7712 H   0  0  0  0  0  0  0  0  0  0  0  0
    7.4011   -6.4800  -22.5240 C   0  0  0  0  0  0  0  0  0  0  0  0
    7.1476   -4.9835  -22.6056 C   0  0  0  0  0  0  0  0  0  0  0  0
    6.6694   -4.6896  -27.8590 C   0  0  0  0  0  0  0  0  0  0  0  0
    7.1869   -3.8442  -26.7065 C   0  0  0  0  0  0  0  0  0  0  0  0
    7.1685   -4.6384  -25.4696 N   0  0  0  0  0  0  0  0  0  0  0  0
    8.4182   -4.8845  -24.7356 C   0  0  0  0  0  0  0  0  0  0  0  0
    8.3023   -4.3129  -23.3319 C   0  0  0  0  0  0  0  0  0  0  0  0
    2.6500   -3.9185  -23.6675 C   0  0  0  0  0  0  0  0  0  0  0  0
    1.8404   -1.6926  -20.7863 C   0  0  0  0  0  0  0  0  0  0  0  0
    2.9975   -1.8868  -19.9511 C   0  0  0  0  0  0  0  0  0  0  0  0
    4.0146   -2.7464  -20.3592 N   0  0  0  0  0  0  0  0  0  0  0  0
    3.9126   -3.4182  -21.5751 C   0  0  0  0  0  0  0  0  0  0  0  0
    2.7555   -3.2240  -22.4103 C   0  0  0  0  0  0  0  0  0  0  0  0
 18 19  1  0  0  0
 19 20  1  0  0  0
 20 21  1  0  0  0
 21 22  1  0  0  0
 22 23  1  0  0  0
 23 24  1  0  0  0
 19 24  1  0  0  0
 22  1  1  0  0  0
  1  2  1  0  0  0
  2  3  2  0  0  0
  3  4  1  0  0  0
  4  5  2  0  0  0
  1  5  1  0  0  0
  4 25  1  0  0  0
 25 26  2  0  0  0
 26 27  1  0  0  0
 27 28  2  0  0  0
 28 29  1  0  0  0
 29 30  2  0  0  0
 25 30  1  0  0  0
  3  6  1  0  0  0
  6  7  2  0  0  0
  7  8  1  0  0  0
  8  9  2  0  0  0
  9 10  1  0  0  0
 10 11  2  0  0  0
  6 11  1  0  0  0
  9 12  1  0  0  0
 12 13  2  0  0  0
 13 14  1  0  0  0
 12 15  1  0  0  0
 15 16  1  0  0  0
  8 16  1  0  0  0
 14 17  1  0  0  0
M  END
> <minimizedAffinity>
-7.15271

$$$$
mol_89659642_11


 30 34  0  0  0  0  0  0  0  0999 V2000
    6.2699   -5.2727  -23.4965 N   0  0  0  0  0  0  0  0  0  0  0  0
    2.2342   -4.2998  -24.2903 C   0  0  0  0  0  0  0  0  0  0  0  0
    3.6149   -4.6041  -24.0164 C   0  0  0  0  0  0  0  0  0  0  0  0
    4.0670   -5.9715  -24.0283 C   0  0  0  0  0  0  0  0  0  0  0  0
    5.4024   -6.2659  -23.7635 N   0  0  0  0  0  0  0  0  0  0  0  0
    4.5951   -3.4822  -23.7148 C   0  0  0  0  0  0  0  0  0  0  0  0
    2.3280   -2.4528  -19.1577 C   0  0  0  0  0  0  0  0  0  0  0  0
    2.5997   -1.7528  -17.9288 C   0  0  0  0  0  0  0  0  0  0  0  0
    3.9254   -2.9192  -20.0061 C   0  0  0  0  0  0  0  0  0  0  0  0
    3.8391   -3.4612  -21.3376 C   0  0  0  0  0  0  0  0  0  0  0  0
    4.6814   -2.9402  -22.3832 C   0  0  0  0  0  0  0  0  0  0  0  0
    4.9055   -1.7972  -19.7044 C   0  0  0  0  0  0  0  0  0  0  0  0
    5.6750   -1.3212  -20.6595 N   0  0  0  0  0  0  0  0  0  0  0  0
    5.5929   -1.8369  -21.9262 O   0  0  0  0  0  0  0  0  0  0  0  0
    4.9967   -1.2250  -18.2992 C   0  0  0  0  0  0  0  0  0  0  0  0
    3.6475   -0.6521  -17.8968 C   0  0  0  0  0  0  0  0  0  0  0  0
    6.1778   -1.4752  -22.6521 H   0  0  0  0  0  0  0  0  0  0  0  0
    7.0295   -3.9552  -26.2503 C   0  0  0  0  0  0  0  0  0  0  0  0
    7.0404   -5.4617  -26.0479 C   0  0  0  0  0  0  0  0  0  0  0  0
    7.5682   -5.4085  -20.7913 C   0  0  0  0  0  0  0  0  0  0  0  0
    8.0000   -6.2550  -21.9777 C   0  0  0  0  0  0  0  0  0  0  0  0
    7.6313   -5.5728  -23.2265 N   0  0  0  0  0  0  0  0  0  0  0  0
    8.6721   -5.2011  -24.1957 C   0  0  0  0  0  0  0  0  0  0  0  0
    8.3998   -5.8924  -25.5217 C   0  0  0  0  0  0  0  0  0  0  0  0
    3.0868   -7.0935  -24.3300 C   0  0  0  0  0  0  0  0  0  0  0  0
    2.0092   -9.1787  -27.2287 C   0  0  0  0  0  0  0  0  0  0  0  0
    2.8467   -8.6531  -28.2758 C   0  0  0  0  0  0  0  0  0  0  0  0
    3.7449   -7.6251  -27.9994 N   0  0  0  0  0  0  0  0  0  0  0  0
    3.8331   -7.1053  -26.7102 C   0  0  0  0  0  0  0  0  0  0  0  0
    2.9956   -7.6309  -25.6630 C   0  0  0  0  0  0  0  0  0  0  0  0
 18 19  1  0  0  0
 19 20  1  0  0  0
 20 21  1  0  0  0
 21 22  1  0  0  0
 22 23  1  0  0  0
 23 24  1  0  0  0
 19 24  1  0  0  0
 22  1  1  0  0  0
  1  2  1  0  0  0
  2  3  2  0  0  0
  3  4  1  0  0  0
  4  5  2  0  0  0
  1  5  1  0  0  0
  4 25  1  0  0  0
 25 26  2  0  0  0
 26 27  1  0  0  0
 27 28  2  0  0  0
 28 29  1  0  0  0
 29 30  2  0  0  0
 25 30  1  0  0  0
  3  6  1  0  0  0
  6  7  2  0  0  0
  7  8  1  0  0  0
  8  9  2  0  0  0
  9 10  1  0  0  0
 10 11  2  0  0  0
  6 11  1  0  0  0
  9 12  1  0  0  0
 12 13  2  0  0  0
 13 14  1  0  0  0
 12 15  1  0  0  0
 15 16  1  0  0  0
  8 16  1  0  0  0
 14 17  1  0  0  0
M  END
> <minimizedAffinity>
-7.90128

$$$$
mol_89659642_11


 30 34  0  0  0  0  0  0  0  0999 V2000
    6.3569   -5.6086  -23.8174 N   0  0  0  0  0  0  0  0  0  0  0  0
    2.2775   -5.9807  -24.8582 C   0  0  0  0  0  0  0  0  0  0  0  0
    3.6627   -5.8276  -24.4952 C   0  0  0  0  0  0  0  0  0  0  0  0
    4.5812   -6.9210  -24.6825 C   0  0  0  0  0  0  0  0  0  0  0  0
    5.9210   -6.7730  -24.3315 N   0  0  0  0  0  0  0  0  0  0  0  0
    4.1553   -4.5122  -23.9144 C   0  0  0  0  0  0  0  0  0  0  0  0
   -0.5626   -3.3085  -22.1093 C   0  0  0  0  0  0  0  0  0  0  0  0
   -1.1835   -2.4085  -21.1720 C   0  0  0  0  0  0  0  0  0  0  0  0
    1.2294   -3.5809  -21.6580 C   0  0  0  0  0  0  0  0  0  0  0  0
    2.0491   -4.3068  -22.5936 C   0  0  0  0  0  0  0  0  0  0  0  0
    3.3356   -3.7863  -22.9788 C   0  0  0  0  0  0  0  0  0  0  0  0
    1.7220   -2.2654  -21.0772 C   0  0  0  0  0  0  0  0  0  0  0  0
    2.8972   -1.7900  -21.4290 N   0  0  0  0  0  0  0  0  0  0  0  0
    3.6770   -2.4805  -22.3190 O   0  0  0  0  0  0  0  0  0  0  0  0
    0.8569   -1.4993  -20.0898 C   0  0  0  0  0  0  0  0  0  0  0  0
   -0.4647   -1.1380  -20.7480 C   0  0  0  0  0  0  0  0  0  0  0  0
    4.5702   -2.1191  -22.5864 H   0  0  0  0  0  0  0  0  0  0  0  0
    6.7238   -3.7204  -26.3066 C   0  0  0  0  0  0  0  0  0  0  0  0
    7.2582   -5.1433  -26.2893 C   0  0  0  0  0  0  0  0  0  0  0  0
    7.4962   -5.6853  -21.0393 C   0  0  0  0  0  0  0  0  0  0  0  0
    8.2526   -6.1470  -22.2743 C   0  0  0  0  0  0  0  0  0  0  0  0
    7.7228   -5.4577  -23.4596 N   0  0  0  0  0  0  0  0  0  0  0  0
    8.6070   -4.6120  -24.2744 C   0  0  0  0  0  0  0  0  0  0  0  0
    8.6570   -5.1519  -25.6945 C   0  0  0  0  0  0  0  0  0  0  0  0
    4.0886   -8.2364  -25.2634 C   0  0  0  0  0  0  0  0  0  0  0  0
    3.8628   -9.9353  -28.5763 C   0  0  0  0  0  0  0  0  0  0  0  0
    4.4443   -8.9398  -29.4393 C   0  0  0  0  0  0  0  0  0  0  0  0
    4.8959   -7.7344  -28.9071 N   0  0  0  0  0  0  0  0  0  0  0  0
    4.7848   -7.4918  -27.5401 C   0  0  0  0  0  0  0  0  0  0  0  0
    4.2033   -8.4873  -26.6769 C   0  0  0  0  0  0  0  0  0  0  0  0
 18 19  1  0  0  0
 19 20  1  0  0  0
 20 21  1  0  0  0
 21 22  1  0  0  0
 22 23  1  0  0  0
 23 24  1  0  0  0
 19 24  1  0  0  0
 22  1  1  0  0  0
  1  2  1  0  0  0
  2  3  2  0  0  0
  3  4  1  0  0  0
  4  5  2  0  0  0
  1  5  1  0  0  0
  4 25  1  0  0  0
 25 26  2  0  0  0
 26 27  1  0  0  0
 27 28  2  0  0  0
 28 29  1  0  0  0
 29 30  2  0  0  0
 25 30  1  0  0  0
  3  6  1  0  0  0
  6  7  2  0  0  0
  7  8  1  0  0  0
  8  9  2  0  0  0
  9 10  1  0  0  0
 10 11  2  0  0  0
  6 11  1  0  0  0
  9 12  1  0  0  0
 12 13  2  0  0  0
 13 14  1  0  0  0
 12 15  1  0  0  0
 15 16  1  0  0  0
  8 16  1  0  0  0
 14 17  1  0  0  0
M  END
> <minimizedAffinity>
-7.42474

$$$$
mol_89659642_11


 30 34  0  0  0  0  0  0  0  0999 V2000
    6.0524   -5.3127  -23.6772 N   0  0  0  0  0  0  0  0  0  0  0  0
    2.9912   -3.4570  -25.9242 C   0  0  0  0  0  0  0  0  0  0  0  0
    4.0533   -4.0741  -25.1724 C   0  0  0  0  0  0  0  0  0  0  0  0
    3.7468   -5.0660  -24.1742 C   0  0  0  0  0  0  0  0  0  0  0  0
    4.7739   -5.6629  -23.4470 N   0  0  0  0  0  0  0  0  0  0  0  0
    5.4977   -3.6785  -25.4323 C   0  0  0  0  0  0  0  0  0  0  0  0
    5.8259   -6.8113  -29.5606 C   0  0  0  0  0  0  0  0  0  0  0  0
    6.6618   -7.0252  -30.7137 C   0  0  0  0  0  0  0  0  0  0  0  0
    5.9993   -5.0546  -28.9500 C   0  0  0  0  0  0  0  0  0  0  0  0
    5.3759   -4.7209  -27.6954 C   0  0  0  0  0  0  0  0  0  0  0  0
    6.1211   -4.0123  -26.6869 C   0  0  0  0  0  0  0  0  0  0  0  0
    7.4438   -4.6591  -29.2099 C   0  0  0  0  0  0  0  0  0  0  0  0
    8.1245   -4.0119  -28.2887 N   0  0  0  0  0  0  0  0  0  0  0  0
    7.5315   -3.6943  -27.0952 O   0  0  0  0  0  0  0  0  0  0  0  0
    8.1017   -5.0114  -30.5340 C   0  0  0  0  0  0  0  0  0  0  0  0
    8.0955   -6.5203  -30.7173 C   0  0  0  0  0  0  0  0  0  0  0  0
    8.0489   -3.2024  -26.3951 H   0  0  0  0  0  0  0  0  0  0  0  0
    5.2985   -3.4705  -21.2412 C   0  0  0  0  0  0  0  0  0  0  0  0
    6.5381   -3.2225  -22.0853 C   0  0  0  0  0  0  0  0  0  0  0  0
    7.0399   -8.1349  -23.9640 C   0  0  0  0  0  0  0  0  0  0  0  0
    7.9249   -6.9691  -23.5538 C   0  0  0  0  0  0  0  0  0  0  0  0
    7.0997   -5.9212  -22.9359 N   0  0  0  0  0  0  0  0  0  0  0  0
    7.3585   -5.5032  -21.5505 C   0  0  0  0  0  0  0  0  0  0  0  0
    7.7019   -4.0228  -21.5237 C   0  0  0  0  0  0  0  0  0  0  0  0
    2.3023   -5.4616  -23.9143 C   0  0  0  0  0  0  0  0  0  0  0  0
   -0.6333   -4.2516  -21.9573 C   0  0  0  0  0  0  0  0  0  0  0  0
   -0.0842   -3.0774  -21.3299 C   0  0  0  0  0  0  0  0  0  0  0  0
    1.2393   -2.7147  -21.5681 N   0  0  0  0  0  0  0  0  0  0  0  0
    2.0319   -3.4879  -22.4130 C   0  0  0  0  0  0  0  0  0  0  0  0
    1.4828   -4.6622  -23.0405 C   0  0  0  0  0  0  0  0  0  0  0  0
 18 19  1  0  0  0
 19 20  1  0  0  0
 20 21  1  0  0  0
 21 22  1  0  0  0
 22 23  1  0  0  0
 23 24  1  0  0  0
 19 24  1  0  0  0
 22  1  1  0  0  0
  1  2  1  0  0  0
  2  3  2  0  0  0
  3  4  1  0  0  0
  4  5  2  0  0  0
  1  5  1  0  0  0
  4 25  1  0  0  0
 25 26  2  0  0  0
 26 27  1  0  0  0
 27 28  2  0  0  0
 28 29  1  0  0  0
 29 30  2  0  0  0
 25 30  1  0  0  0
  3  6  1  0  0  0
  6  7  2  0  0  0
  7  8  1  0  0  0
  8  9  2  0  0  0
  9 10  1  0  0  0
 10 11  2  0  0  0
  6 11  1  0  0  0
  9 12  1  0  0  0
 12 13  2  0  0  0
 13 14  1  0  0  0
 12 15  1  0  0  0
 15 16  1  0  0  0
  8 16  1  0  0  0
 14 17  1  0  0  0
M  END
> <minimizedAffinity>
-7.16291

$$$$
mol_89659642_11


 30 34  0  0  0  0  0  0  0  0999 V2000
    5.9409   -5.1720  -24.9833 N   0  0  0  0  0  0  0  0  0  0  0  0
    2.3268   -6.8184  -23.5372 C   0  0  0  0  0  0  0  0  0  0  0  0
    3.5682   -6.2833  -24.0338 C   0  0  0  0  0  0  0  0  0  0  0  0
    3.7575   -4.8577  -24.1127 C   0  0  0  0  0  0  0  0  0  0  0  0
    4.9581   -4.3401  -24.5930 N   0  0  0  0  0  0  0  0  0  0  0  0
    4.6785   -7.2229  -24.4748 C   0  0  0  0  0  0  0  0  0  0  0  0
    1.9448   -8.8554  -28.5770 C   0  0  0  0  0  0  0  0  0  0  0  0
    2.1422   -9.5514  -29.8222 C   0  0  0  0  0  0  0  0  0  0  0  0
    3.5425   -8.0697  -28.0120 C   0  0  0  0  0  0  0  0  0  0  0  0
    3.5705   -7.4907  -26.6937 C   0  0  0  0  0  0  0  0  0  0  0  0
    4.6506   -7.8020  -25.7932 C   0  0  0  0  0  0  0  0  0  0  0  0
    4.6528   -9.0095  -28.4531 C   0  0  0  0  0  0  0  0  0  0  0  0
    5.6395   -9.2939  -27.6305 N   0  0  0  0  0  0  0  0  0  0  0  0
    5.6661   -8.7430  -26.3764 O   0  0  0  0  0  0  0  0  0  0  0  0
    4.6233   -9.6207  -29.8444 C   0  0  0  0  0  0  0  0  0  0  0  0
    3.3572  -10.4455  -30.0088 C   0  0  0  0  0  0  0  0  0  0  0  0
    6.4160   -8.9591  -25.7512 H   0  0  0  0  0  0  0  0  0  0  0  0
    7.4022   -6.4756  -22.5214 C   0  0  0  0  0  0  0  0  0  0  0  0
    7.1487   -4.9794  -22.6078 C   0  0  0  0  0  0  0  0  0  0  0  0
    6.6618   -4.7039  -27.8614 C   0  0  0  0  0  0  0  0  0  0  0  0
    7.1813   -3.8546  -26.7127 C   0  0  0  0  0  0  0  0  0  0  0  0
    7.1649   -4.6443  -25.4730 N   0  0  0  0  0  0  0  0  0  0  0  0
    8.4157   -4.8878  -24.7402 C   0  0  0  0  0  0  0  0  0  0  0  0
    8.3022   -4.3114  -23.3383 C   0  0  0  0  0  0  0  0  0  0  0  0
    2.6471   -3.9180  -23.6717 C   0  0  0  0  0  0  0  0  0  0  0  0
    1.8389   -1.6748  -20.8034 C   0  0  0  0  0  0  0  0  0  0  0  0
    2.9974   -1.8625  -19.9687 C   0  0  0  0  0  0  0  0  0  0  0  0
    4.0150   -2.7235  -20.3728 N   0  0  0  0  0  0  0  0  0  0  0  0
    3.9120   -3.4031  -21.5843 C   0  0  0  0  0  0  0  0  0  0  0  0
    2.7535   -3.2154  -22.4191 C   0  0  0  0  0  0  0  0  0  0  0  0
 18 19  1  0  0  0
 19 20  1  0  0  0
 20 21  1  0  0  0
 21 22  1  0  0  0
 22 23  1  0  0  0
 23 24  1  0  0  0
 19 24  1  0  0  0
 22  1  1  0  0  0
  1  2  1  0  0  0
  2  3  2  0  0  0
  3  4  1  0  0  0
  4  5  2  0  0  0
  1  5  1  0  0  0
  4 25  1  0  0  0
 25 26  2  0  0  0
 26 27  1  0  0  0
 27 28  2  0  0  0
 28 29  1  0  0  0
 29 30  2  0  0  0
 25 30  1  0  0  0
  3  6  1  0  0  0
  6  7  2  0  0  0
  7  8  1  0  0  0
  8  9  2  0  0  0
  9 10  1  0  0  0
 10 11  2  0  0  0
  6 11  1  0  0  0
  9 12  1  0  0  0
 12 13  2  0  0  0
 13 14  1  0  0  0
 12 15  1  0  0  0
 15 16  1  0  0  0
  8 16  1  0  0  0
 14 17  1  0  0  0
M  END
> <minimizedAffinity>
-7.14678

$$$$
mol_89659642_11


 30 34  0  0  0  0  0  0  0  0999 V2000
    7.1219   -4.2252  -24.6892 N   0  0  0  0  0  0  0  0  0  0  0  0
    3.1297   -3.7897  -26.0069 C   0  0  0  0  0  0  0  0  0  0  0  0
    4.4850   -3.9194  -25.5376 C   0  0  0  0  0  0  0  0  0  0  0  0
    5.3943   -4.8171  -26.2022 C   0  0  0  0  0  0  0  0  0  0  0  0
    6.7052   -4.9426  -25.7484 N   0  0  0  0  0  0  0  0  0  0  0  0
    4.9559   -3.1090  -24.3410 C   0  0  0  0  0  0  0  0  0  0  0  0
    0.1520   -2.8184  -22.3906 C   0  0  0  0  0  0  0  0  0  0  0  0
   -0.5141   -2.5034  -21.1532 C   0  0  0  0  0  0  0  0  0  0  0  0
    1.9112   -3.3538  -22.0629 C   0  0  0  0  0  0  0  0  0  0  0  0
    2.7774   -3.5282  -23.2002 C   0  0  0  0  0  0  0  0  0  0  0  0
    4.0897   -2.9347  -23.2037 C   0  0  0  0  0  0  0  0  0  0  0  0
    2.3820   -2.5433  -20.8662 C   0  0  0  0  0  0  0  0  0  0  0  0
    3.5808   -2.0012  -20.8694 N   0  0  0  0  0  0  0  0  0  0  0  0
    4.4048   -2.1671  -21.9513 O   0  0  0  0  0  0  0  0  0  0  0  0
    1.4679   -2.3593  -19.6659 C   0  0  0  0  0  0  0  0  0  0  0  0
    0.1913   -1.6599  -20.1037 C   0  0  0  0  0  0  0  0  0  0  0  0
    5.3159   -1.7550  -21.9537 H   0  0  0  0  0  0  0  0  0  0  0  0
    6.2964   -6.9104  -23.2734 C   0  0  0  0  0  0  0  0  0  0  0  0
    6.5387   -5.6293  -22.4920 C   0  0  0  0  0  0  0  0  0  0  0  0
    9.5970   -3.2462  -26.0810 C   0  0  0  0  0  0  0  0  0  0  0  0
    9.4561   -3.3296  -24.5698 C   0  0  0  0  0  0  0  0  0  0  0  0
    8.4583   -4.3530  -24.2265 N   0  0  0  0  0  0  0  0  0  0  0  0
    8.8440   -5.5089  -23.4042 C   0  0  0  0  0  0  0  0  0  0  0  0
    8.0119   -5.5261  -22.1323 C   0  0  0  0  0  0  0  0  0  0  0  0
    4.9235   -5.6275  -27.3989 C   0  0  0  0  0  0  0  0  0  0  0  0
    2.9700   -8.7265  -28.1000 C   0  0  0  0  0  0  0  0  0  0  0  0
    2.6423   -9.1565  -26.7652 C   0  0  0  0  0  0  0  0  0  0  0  0
    3.0735   -8.4139  -25.6686 N   0  0  0  0  0  0  0  0  0  0  0  0
    3.8220   -7.2554  -25.8630 C   0  0  0  0  0  0  0  0  0  0  0  0
    4.1497   -6.8254  -27.1979 C   0  0  0  0  0  0  0  0  0  0  0  0
 18 19  1  0  0  0
 19 20  1  0  0  0
 20 21  1  0  0  0
 21 22  1  0  0  0
 22 23  1  0  0  0
 23 24  1  0  0  0
 19 24  1  0  0  0
 22  1  1  0  0  0
  1  2  1  0  0  0
  2  3  2  0  0  0
  3  4  1  0  0  0
  4  5  2  0  0  0
  1  5  1  0  0  0
  4 25  1  0  0  0
 25 26  2  0  0  0
 26 27  1  0  0  0
 27 28  2  0  0  0
 28 29  1  0  0  0
 29 30  2  0  0  0
 25 30  1  0  0  0
  3  6  1  0  0  0
  6  7  2  0  0  0
  7  8  1  0  0  0
  8  9  2  0  0  0
  9 10  1  0  0  0
 10 11  2  0  0  0
  6 11  1  0  0  0
  9 12  1  0  0  0
 12 13  2  0  0  0
 13 14  1  0  0  0
 12 15  1  0  0  0
 15 16  1  0  0  0
  8 16  1  0  0  0
 14 17  1  0  0  0
M  END
> <minimizedAffinity>
-6.92022

$$$$
mol_44587235_12


 30 34  0  0  0  0  0  0  0  0999 V2000
    6.2673   -5.2720  -23.4967 N   0  0  0  0  0  0  0  0  0  0  0  0
    2.2302   -4.3059  -24.2924 C   0  0  0  0  0  0  0  0  0  0  0  0
    3.6114   -4.6079  -24.0179 C   0  0  0  0  0  0  0  0  0  0  0  0
    4.0654   -5.9747  -24.0278 C   0  0  0  0  0  0  0  0  0  0  0  0
    5.4012   -6.2666  -23.7624 N   0  0  0  0  0  0  0  0  0  0  0  0
    4.5899   -3.4841  -23.7178 C   0  0  0  0  0  0  0  0  0  0  0  0
    2.3278   -2.4583  -19.1576 C   0  0  0  0  0  0  0  0  0  0  0  0
    2.6001   -1.7576  -17.9292 C   0  0  0  0  0  0  0  0  0  0  0  0
    3.9248   -2.9217  -20.0083 C   0  0  0  0  0  0  0  0  0  0  0  0
    3.8374   -3.4641  -21.3396 C   0  0  0  0  0  0  0  0  0  0  0  0
    4.6773   -2.9418  -22.3865 C   0  0  0  0  0  0  0  0  0  0  0  0
    4.9033   -1.7980  -19.7082 C   0  0  0  0  0  0  0  0  0  0  0  0
    5.6705   -1.3208  -20.6645 N   0  0  0  0  0  0  0  0  0  0  0  0
    5.5875   -1.8368  -21.9309 O   0  0  0  0  0  0  0  0  0  0  0  0
    4.9956   -1.2256  -18.3031 C   0  0  0  0  0  0  0  0  0  0  0  0
    3.6460   -0.6550  -17.8989 C   0  0  0  0  0  0  0  0  0  0  0  0
    6.1706   -1.4741  -22.6579 H   0  0  0  0  0  0  0  0  0  0  0  0
    7.0253   -3.9573  -26.2523 C   0  0  0  0  0  0  0  0  0  0  0  0
    7.0384   -5.4635  -26.0478 C   0  0  0  0  0  0  0  0  0  0  0  0
    7.5653   -5.4020  -20.7913 C   0  0  0  0  0  0  0  0  0  0  0  0
    7.9985   -6.2496  -21.9763 C   0  0  0  0  0  0  0  0  0  0  0  0
    7.6292   -5.5696  -23.2261 N   0  0  0  0  0  0  0  0  0  0  0  0
    8.6695   -5.1979  -24.1958 C   0  0  0  0  0  0  0  0  0  0  0  0
    8.3984   -5.8915  -25.5209 C   0  0  0  0  0  0  0  0  0  0  0  0
    3.0869   -7.0984  -24.3279 C   0  0  0  0  0  0  0  0  0  0  0  0
    2.0114   -9.1883  -27.2240 C   0  0  0  0  0  0  0  0  0  0  0  0
    2.8475   -8.6624  -28.2721 C   0  0  0  0  0  0  0  0  0  0  0  0
    3.7441   -7.6326  -27.9972 N   0  0  0  0  0  0  0  0  0  0  0  0
    3.8321   -7.1114  -26.7085 C   0  0  0  0  0  0  0  0  0  0  0  0
    2.9959   -7.6373  -25.6604 C   0  0  0  0  0  0  0  0  0  0  0  0
 18 19  1  0  0  0
 19 20  1  0  0  0
 20 21  1  0  0  0
 21 22  1  0  0  0
 22 23  1  0  0  0
 23 24  1  0  0  0
 19 24  1  0  0  0
 22  1  1  0  0  0
  1  2  1  0  0  0
  2  3  2  0  0  0
  3  4  1  0  0  0
  4  5  2  0  0  0
  1  5  1  0  0  0
  4 25  1  0  0  0
 25 26  2  0  0  0
 26 27  1  0  0  0
 27 28  2  0  0  0
 28 29  1  0  0  0
 29 30  2  0  0  0
 25 30  1  0  0  0
  3  6  1  0  0  0
  6  7  2  0  0  0
  7  8  1  0  0  0
  8  9  2  0  0  0
  9 10  1  0  0  0
 10 11  2  0  0  0
  6 11  1  0  0  0
  9 12  1  0  0  0
 12 13  2  0  0  0
 13 14  1  0  0  0
 12 15  1  0  0  0
 15 16  1  0  0  0
  8 16  1  0  0  0
 14 17  1  0  0  0
M  END
> <minimizedAffinity>
-7.90289

$$$$
mol_44587235_12


 30 34  0  0  0  0  0  0  0  0999 V2000
    6.3664   -5.6251  -23.8313 N   0  0  0  0  0  0  0  0  0  0  0  0
    2.2913   -5.9621  -24.9013 C   0  0  0  0  0  0  0  0  0  0  0  0
    3.6751   -5.8210  -24.5283 C   0  0  0  0  0  0  0  0  0  0  0  0
    4.5877   -6.9190  -24.7182 C   0  0  0  0  0  0  0  0  0  0  0  0
    5.9261   -6.7824  -24.3573 N   0  0  0  0  0  0  0  0  0  0  0  0
    4.1726   -4.5134  -23.9340 C   0  0  0  0  0  0  0  0  0  0  0  0
   -0.5435   -3.3051  -22.1273 C   0  0  0  0  0  0  0  0  0  0  0  0
   -1.1623   -2.4110  -21.1829 C   0  0  0  0  0  0  0  0  0  0  0  0
    1.2463   -3.5899  -21.6750 C   0  0  0  0  0  0  0  0  0  0  0  0
    2.0646   -4.3107  -22.6157 C   0  0  0  0  0  0  0  0  0  0  0  0
    3.3542   -3.7926  -22.9933 C   0  0  0  0  0  0  0  0  0  0  0  0
    1.7437   -2.2823  -21.0807 C   0  0  0  0  0  0  0  0  0  0  0  0
    2.9217   -1.8090  -21.4257 N   0  0  0  0  0  0  0  0  0  0  0  0
    3.7002   -2.4946  -22.3205 O   0  0  0  0  0  0  0  0  0  0  0  0
    0.8800   -1.5215  -20.0879 C   0  0  0  0  0  0  0  0  0  0  0  0
   -0.4385   -1.1479  -20.7454 C   0  0  0  0  0  0  0  0  0  0  0  0
    4.5957   -2.1349  -22.5827 H   0  0  0  0  0  0  0  0  0  0  0  0
    6.7571   -3.7042  -26.2918 C   0  0  0  0  0  0  0  0  0  0  0  0
    7.2845   -5.1299  -26.2912 C   0  0  0  0  0  0  0  0  0  0  0  0
    7.4887   -5.7459  -21.0480 C   0  0  0  0  0  0  0  0  0  0  0  0
    8.2501   -6.1942  -22.2847 C   0  0  0  0  0  0  0  0  0  0  0  0
    7.7308   -5.4859  -23.4634 N   0  0  0  0  0  0  0  0  0  0  0  0
    8.6239   -4.6334  -24.2612 C   0  0  0  0  0  0  0  0  0  0  0  0
    8.6797   -5.1537  -25.6884 C   0  0  0  0  0  0  0  0  0  0  0  0
    4.0904   -8.2266  -25.3124 C   0  0  0  0  0  0  0  0  0  0  0  0
    3.8361   -9.8805  -28.6458 C   0  0  0  0  0  0  0  0  0  0  0  0
    4.4097   -8.8732  -29.5005 C   0  0  0  0  0  0  0  0  0  0  0  0
    4.8654   -7.6750  -28.9560 N   0  0  0  0  0  0  0  0  0  0  0  0
    4.7665   -7.4509  -27.5849 C   0  0  0  0  0  0  0  0  0  0  0  0
    4.1928   -8.4582  -26.7302 C   0  0  0  0  0  0  0  0  0  0  0  0
 18 19  1  0  0  0
 19 20  1  0  0  0
 20 21  1  0  0  0
 21 22  1  0  0  0
 22 23  1  0  0  0
 23 24  1  0  0  0
 19 24  1  0  0  0
 22  1  1  0  0  0
  1  2  1  0  0  0
  2  3  2  0  0  0
  3  4  1  0  0  0
  4  5  2  0  0  0
  1  5  1  0  0  0
  4 25  1  0  0  0
 25 26  2  0  0  0
 26 27  1  0  0  0
 27 28  2  0  0  0
 28 29  1  0  0  0
 29 30  2  0  0  0
 25 30  1  0  0  0
  3  6  1  0  0  0
  6  7  2  0  0  0
  7  8  1  0  0  0
  8  9  2  0  0  0
  9 10  1  0  0  0
 10 11  2  0  0  0
  6 11  1  0  0  0
  9 12  1  0  0  0
 12 13  2  0  0  0
 13 14  1  0  0  0
 12 15  1  0  0  0
 15 16  1  0  0  0
  8 16  1  0  0  0
 14 17  1  0  0  0
M  END
> <minimizedAffinity>
-7.43272

$$$$
mol_44587235_12


 30 34  0  0  0  0  0  0  0  0999 V2000
    4.5375   -5.7184  -24.3690 N   0  0  0  0  0  0  0  0  0  0  0  0
    8.6802   -4.8882  -24.2560 C   0  0  0  0  0  0  0  0  0  0  0  0
    7.2696   -5.1704  -24.3225 C   0  0  0  0  0  0  0  0  0  0  0  0
    6.5120   -5.3438  -23.1099 C   0  0  0  0  0  0  0  0  0  0  0  0
    5.1476   -5.6167  -23.1743 N   0  0  0  0  0  0  0  0  0  0  0  0
    6.5802   -5.2853  -25.6723 C   0  0  0  0  0  0  0  0  0  0  0  0
    8.3815  -10.0994  -26.4104 C   0  0  0  0  0  0  0  0  0  0  0  0
    8.1320  -11.2508  -27.2389 C   0  0  0  0  0  0  0  0  0  0  0  0
    6.8515   -9.0334  -26.3026 C   0  0  0  0  0  0  0  0  0  0  0  0
    6.9788   -7.7478  -25.6662 C   0  0  0  0  0  0  0  0  0  0  0  0
    6.4529   -6.5710  -26.3087 C   0  0  0  0  0  0  0  0  0  0  0  0
    6.1622   -9.1484  -27.6524 C   0  0  0  0  0  0  0  0  0  0  0  0
    5.6818   -8.0734  -28.2394 N   0  0  0  0  0  0  0  0  0  0  0  0
    5.8028   -6.8504  -27.6340 O   0  0  0  0  0  0  0  0  0  0  0  0
    6.0278  -10.5052  -28.3241 C   0  0  0  0  0  0  0  0  0  0  0  0
    7.4099  -11.0896  -28.5667 C   0  0  0  0  0  0  0  0  0  0  0  0
    5.4377   -6.0332  -28.0801 H   0  0  0  0  0  0  0  0  0  0  0  0
    4.0718   -2.7760  -25.3799 C   0  0  0  0  0  0  0  0  0  0  0  0
    3.7166   -3.2078  -23.9664 C   0  0  0  0  0  0  0  0  0  0  0  0
    3.2723   -8.3782  -24.9574 C   0  0  0  0  0  0  0  0  0  0  0  0
    2.6444   -7.3259  -24.0581 C   0  0  0  0  0  0  0  0  0  0  0  0
    3.1465   -5.9967  -24.4346 N   0  0  0  0  0  0  0  0  0  0  0  0
    2.2088   -4.9556  -24.8791 C   0  0  0  0  0  0  0  0  0  0  0  0
    2.3003   -3.7593  -23.9458 C   0  0  0  0  0  0  0  0  0  0  0  0
    7.2012   -5.2290  -21.7601 C   0  0  0  0  0  0  0  0  0  0  0  0
    7.4684   -2.8029  -18.9396 C   0  0  0  0  0  0  0  0  0  0  0  0
    6.6302   -1.7320  -19.4137 C   0  0  0  0  0  0  0  0  0  0  0  0
    5.9986   -1.8372  -20.6506 N   0  0  0  0  0  0  0  0  0  0  0  0
    6.1777   -2.9782  -21.4291 C   0  0  0  0  0  0  0  0  0  0  0  0
    7.0160   -4.0491  -20.9551 C   0  0  0  0  0  0  0  0  0  0  0  0
 18 19  1  0  0  0
 19 20  1  0  0  0
 20 21  1  0  0  0
 21 22  1  0  0  0
 22 23  1  0  0  0
 23 24  1  0  0  0
 19 24  1  0  0  0
 22  1  1  0  0  0
  1  2  1  0  0  0
  2  3  2  0  0  0
  3  4  1  0  0  0
  4  5  2  0  0  0
  1  5  1  0  0  0
  4 25  1  0  0  0
 25 26  2  0  0  0
 26 27  1  0  0  0
 27 28  2  0  0  0
 28 29  1  0  0  0
 29 30  2  0  0  0
 25 30  1  0  0  0
  3  6  1  0  0  0
  6  7  2  0  0  0
  7  8  1  0  0  0
  8  9  2  0  0  0
  9 10  1  0  0  0
 10 11  2  0  0  0
  6 11  1  0  0  0
  9 12  1  0  0  0
 12 13  2  0  0  0
 13 14  1  0  0  0
 12 15  1  0  0  0
 15 16  1  0  0  0
  8 16  1  0  0  0
 14 17  1  0  0  0
M  END
> <minimizedAffinity>
-7.39021

$$$$
mol_44587235_12


 30 34  0  0  0  0  0  0  0  0999 V2000
    6.7825   -4.3734  -21.2715 N   0  0  0  0  0  0  0  0  0  0  0  0
    4.1636   -5.9122  -24.2106 C   0  0  0  0  0  0  0  0  0  0  0  0
    5.0715   -5.4111  -23.2113 C   0  0  0  0  0  0  0  0  0  0  0  0
    4.8393   -4.1240  -22.6080 C   0  0  0  0  0  0  0  0  0  0  0  0
    5.7174   -3.6394  -21.6415 N   0  0  0  0  0  0  0  0  0  0  0  0
    6.2748   -6.2404  -22.7933 C   0  0  0  0  0  0  0  0  0  0  0  0
    5.9138   -9.2576  -27.0042 C   0  0  0  0  0  0  0  0  0  0  0  0
    6.7056  -10.2005  -27.7512 C   0  0  0  0  0  0  0  0  0  0  0  0
    7.0191   -8.1107  -26.0286 C   0  0  0  0  0  0  0  0  0  0  0  0
    6.3910   -7.2253  -25.0823 C   0  0  0  0  0  0  0  0  0  0  0  0
    6.9030   -7.1257  -23.7398 C   0  0  0  0  0  0  0  0  0  0  0  0
    8.2224   -8.9400  -25.6107 C   0  0  0  0  0  0  0  0  0  0  0  0
    8.6901   -8.8490  -24.3844 N   0  0  0  0  0  0  0  0  0  0  0  0
    8.0927   -8.0068  -23.4841 O   0  0  0  0  0  0  0  0  0  0  0  0
    8.8854   -9.8744  -26.6096 C   0  0  0  0  0  0  0  0  0  0  0  0
    7.8758  -10.9062  -27.0855 C   0  0  0  0  0  0  0  0  0  0  0  0
    8.4482   -7.9376  -22.5519 H   0  0  0  0  0  0  0  0  0  0  0  0
    8.5965   -3.2560  -23.5861 C   0  0  0  0  0  0  0  0  0  0  0  0
    8.9803   -4.4905  -22.7866 C   0  0  0  0  0  0  0  0  0  0  0  0
    6.0611   -3.4312  -18.5123 C   0  0  0  0  0  0  0  0  0  0  0  0
    7.3878   -4.0863  -18.8600 C   0  0  0  0  0  0  0  0  0  0  0  0
    7.6777   -3.8793  -20.2862 N   0  0  0  0  0  0  0  0  0  0  0  0
    8.8941   -3.1610  -20.6923 C   0  0  0  0  0  0  0  0  0  0  0  0
    9.7580   -4.0715  -21.5497 C   0  0  0  0  0  0  0  0  0  0  0  0
    3.6360   -3.2947  -23.0259 C   0  0  0  0  0  0  0  0  0  0  0  0
    0.7710   -1.5057  -21.4439 C   0  0  0  0  0  0  0  0  0  0  0  0
    1.0151   -1.7684  -20.0491 C   0  0  0  0  0  0  0  0  0  0  0  0
    2.1177   -2.5284  -19.6661 N   0  0  0  0  0  0  0  0  0  0  0  0
    2.9842   -3.0343  -20.6321 C   0  0  0  0  0  0  0  0  0  0  0  0
    2.7400   -2.7716  -22.0270 C   0  0  0  0  0  0  0  0  0  0  0  0
 18 19  1  0  0  0
 19 20  1  0  0  0
 20 21  1  0  0  0
 21 22  1  0  0  0
 22 23  1  0  0  0
 23 24  1  0  0  0
 19 24  1  0  0  0
 22  1  1  0  0  0
  1  2  1  0  0  0
  2  3  2  0  0  0
  3  4  1  0  0  0
  4  5  2  0  0  0
  1  5  1  0  0  0
  4 25  1  0  0  0
 25 26  2  0  0  0
 26 27  1  0  0  0
 27 28  2  0  0  0
 28 29  1  0  0  0
 29 30  2  0  0  0
 25 30  1  0  0  0
  3  6  1  0  0  0
  6  7  2  0  0  0
  7  8  1  0  0  0
  8  9  2  0  0  0
  9 10  1  0  0  0
 10 11  2  0  0  0
  6 11  1  0  0  0
  9 12  1  0  0  0
 12 13  2  0  0  0
 13 14  1  0  0  0
 12 15  1  0  0  0
 15 16  1  0  0  0
  8 16  1  0  0  0
 14 17  1  0  0  0
M  END
> <minimizedAffinity>
-7.25119

$$$$
mol_44587235_12


 30 34  0  0  0  0  0  0  0  0999 V2000
    5.9479   -5.1827  -24.9705 N   0  0  0  0  0  0  0  0  0  0  0  0
    2.3291   -6.8245  -23.5308 C   0  0  0  0  0  0  0  0  0  0  0  0
    3.5720   -6.2910  -24.0252 C   0  0  0  0  0  0  0  0  0  0  0  0
    3.7630   -4.8657  -24.1045 C   0  0  0  0  0  0  0  0  0  0  0  0
    4.9652   -4.3497  -24.5826 N   0  0  0  0  0  0  0  0  0  0  0  0
    4.6823   -7.2321  -24.4634 C   0  0  0  0  0  0  0  0  0  0  0  0
    1.9618   -8.8525  -28.5790 C   0  0  0  0  0  0  0  0  0  0  0  0
    2.1628   -9.5469  -29.8246 C   0  0  0  0  0  0  0  0  0  0  0  0
    3.5587   -8.0709  -28.0064 C   0  0  0  0  0  0  0  0  0  0  0  0
    3.5825   -7.4941  -26.6870 C   0  0  0  0  0  0  0  0  0  0  0  0
    4.6584   -7.8089  -25.7828 C   0  0  0  0  0  0  0  0  0  0  0  0
    4.6689   -9.0120  -28.4447 C   0  0  0  0  0  0  0  0  0  0  0  0
    5.6518   -9.2996  -27.6186 N   0  0  0  0  0  0  0  0  0  0  0  0
    5.6746   -8.7509  -26.3636 O   0  0  0  0  0  0  0  0  0  0  0  0
    4.6438   -9.6208  -29.8372 C   0  0  0  0  0  0  0  0  0  0  0  0
    3.3768  -10.4430  -30.0079 C   0  0  0  0  0  0  0  0  0  0  0  0
    6.4216   -8.9695  -25.7357 H   0  0  0  0  0  0  0  0  0  0  0  0
    7.4012   -6.4776  -22.4992 C   0  0  0  0  0  0  0  0  0  0  0  0
    7.1479   -4.9817  -22.5916 C   0  0  0  0  0  0  0  0  0  0  0  0
    6.6782   -4.7248  -27.8477 C   0  0  0  0  0  0  0  0  0  0  0  0
    7.1938   -3.8714  -26.7004 C   0  0  0  0  0  0  0  0  0  0  0  0
    7.1735   -4.6567  -25.4580 N   0  0  0  0  0  0  0  0  0  0  0  0
    8.4220   -4.8975  -24.7203 C   0  0  0  0  0  0  0  0  0  0  0  0
    8.3037   -4.3162  -23.3207 C   0  0  0  0  0  0  0  0  0  0  0  0
    2.6528   -3.9245  -23.6663 C   0  0  0  0  0  0  0  0  0  0  0  0
    1.8450   -1.6726  -20.8048 C   0  0  0  0  0  0  0  0  0  0  0  0
    3.0035   -1.8580  -19.9694 C   0  0  0  0  0  0  0  0  0  0  0  0
    4.0208   -2.7204  -20.3709 N   0  0  0  0  0  0  0  0  0  0  0  0
    3.9179   -3.4036  -21.5804 C   0  0  0  0  0  0  0  0  0  0  0  0
    2.7593   -3.2182  -22.4157 C   0  0  0  0  0  0  0  0  0  0  0  0
 18 19  1  0  0  0
 19 20  1  0  0  0
 20 21  1  0  0  0
 21 22  1  0  0  0
 22 23  1  0  0  0
 23 24  1  0  0  0
 19 24  1  0  0  0
 22  1  1  0  0  0
  1  2  1  0  0  0
  2  3  2  0  0  0
  3  4  1  0  0  0
  4  5  2  0  0  0
  1  5  1  0  0  0
  4 25  1  0  0  0
 25 26  2  0  0  0
 26 27  1  0  0  0
 27 28  2  0  0  0
 28 29  1  0  0  0
 29 30  2  0  0  0
 25 30  1  0  0  0
  3  6  1  0  0  0
  6  7  2  0  0  0
  7  8  1  0  0  0
  8  9  2  0  0  0
  9 10  1  0  0  0
 10 11  2  0  0  0
  6 11  1  0  0  0
  9 12  1  0  0  0
 12 13  2  0  0  0
 13 14  1  0  0  0
 12 15  1  0  0  0
 15 16  1  0  0  0
  8 16  1  0  0  0
 14 17  1  0  0  0
M  END
> <minimizedAffinity>
-7.15043

$$$$
mol_60146017_13


 30 34  0  0  0  0  0  0  0  0999 V2000
    6.2826   -5.2650  -23.5058 N   0  0  0  0  0  0  0  0  0  0  0  0
    2.2449   -4.2943  -24.2932 C   0  0  0  0  0  0  0  0  0  0  0  0
    3.6263   -4.5980  -24.0214 C   0  0  0  0  0  0  0  0  0  0  0  0
    4.0807   -5.9644  -24.0413 C   0  0  0  0  0  0  0  0  0  0  0  0
    5.4166   -6.2580  -23.7783 N   0  0  0  0  0  0  0  0  0  0  0  0
    4.6046   -3.4761  -23.7135 C   0  0  0  0  0  0  0  0  0  0  0  0
    2.3274   -2.4656  -19.1574 C   0  0  0  0  0  0  0  0  0  0  0  0
    2.5959   -1.7697  -17.9254 C   0  0  0  0  0  0  0  0  0  0  0  0
    3.9270   -2.9271  -20.0043 C   0  0  0  0  0  0  0  0  0  0  0  0
    3.8439   -3.4644  -21.3379 C   0  0  0  0  0  0  0  0  0  0  0  0
    4.6877   -2.9387  -22.3799 C   0  0  0  0  0  0  0  0  0  0  0  0
    4.9054   -1.8052  -19.6965 C   0  0  0  0  0  0  0  0  0  0  0  0
    5.6763   -1.3251  -20.6484 N   0  0  0  0  0  0  0  0  0  0  0  0
    5.5971   -1.8362  -21.9170 O   0  0  0  0  0  0  0  0  0  0  0  0
    4.9931   -1.2382  -18.2890 C   0  0  0  0  0  0  0  0  0  0  0  0
    3.6425   -0.6681  -17.8873 C   0  0  0  0  0  0  0  0  0  0  0  0
    6.1831   -1.4712  -22.6406 H   0  0  0  0  0  0  0  0  0  0  0  0
    7.0367   -3.9518  -26.2631 C   0  0  0  0  0  0  0  0  0  0  0  0
    7.0482   -5.4579  -26.0583 C   0  0  0  0  0  0  0  0  0  0  0  0
    7.5859   -5.3962  -20.8028 C   0  0  0  0  0  0  0  0  0  0  0  0
    8.0156   -6.2445  -21.9887 C   0  0  0  0  0  0  0  0  0  0  0  0
    7.6445   -5.5644  -23.2378 N   0  0  0  0  0  0  0  0  0  0  0  0
    8.6835   -5.1939  -24.2097 C   0  0  0  0  0  0  0  0  0  0  0  0
    8.4087   -5.8875  -25.5340 C   0  0  0  0  0  0  0  0  0  0  0  0
    3.1024   -7.0862  -24.3491 C   0  0  0  0  0  0  0  0  0  0  0  0
    2.0378   -9.1667  -27.2561 C   0  0  0  0  0  0  0  0  0  0  0  0
    2.8794   -8.6388  -28.2988 C   0  0  0  0  0  0  0  0  0  0  0  0
    3.7759   -7.6108  -28.0168 N   0  0  0  0  0  0  0  0  0  0  0  0
    3.8585   -7.0934  -26.7262 C   0  0  0  0  0  0  0  0  0  0  0  0
    3.0169   -7.6213  -25.6836 C   0  0  0  0  0  0  0  0  0  0  0  0
 18 19  1  0  0  0
 19 20  1  0  0  0
 20 21  1  0  0  0
 21 22  1  0  0  0
 22 23  1  0  0  0
 23 24  1  0  0  0
 19 24  1  0  0  0
 22  1  1  0  0  0
  1  2  1  0  0  0
  2  3  2  0  0  0
  3  4  1  0  0  0
  4  5  2  0  0  0
  1  5  1  0  0  0
  4 25  1  0  0  0
 25 26  2  0  0  0
 26 27  1  0  0  0
 27 28  2  0  0  0
 28 29  1  0  0  0
 29 30  2  0  0  0
 25 30  1  0  0  0
  3  6  1  0  0  0
  6  7  2  0  0  0
  7  8  1  0  0  0
  8  9  2  0  0  0
  9 10  1  0  0  0
 10 11  2  0  0  0
  6 11  1  0  0  0
  9 12  1  0  0  0
 12 13  2  0  0  0
 13 14  1  0  0  0
 12 15  1  0  0  0
 15 16  1  0  0  0
  8 16  1  0  0  0
 14 17  1  0  0  0
M  END
> <minimizedAffinity>
-7.91643

$$$$
mol_60146017_13


 30 34  0  0  0  0  0  0  0  0999 V2000
    6.3684   -5.6238  -23.8124 N   0  0  0  0  0  0  0  0  0  0  0  0
    2.2926   -5.9868  -24.8710 C   0  0  0  0  0  0  0  0  0  0  0  0
    3.6766   -5.8368  -24.5020 C   0  0  0  0  0  0  0  0  0  0  0  0
    4.5937   -6.9318  -24.6863 C   0  0  0  0  0  0  0  0  0  0  0  0
    5.9322   -6.7868  -24.3293 N   0  0  0  0  0  0  0  0  0  0  0  0
    4.1694   -4.5228  -23.9181 C   0  0  0  0  0  0  0  0  0  0  0  0
   -0.5473   -3.3245  -22.1063 C   0  0  0  0  0  0  0  0  0  0  0  0
   -1.1677   -2.4269  -21.1663 C   0  0  0  0  0  0  0  0  0  0  0  0
    1.2451   -3.5977  -21.6571 C   0  0  0  0  0  0  0  0  0  0  0  0
    2.0642   -4.3211  -22.5952 C   0  0  0  0  0  0  0  0  0  0  0  0
    3.3502   -3.7994  -22.9800 C   0  0  0  0  0  0  0  0  0  0  0  0
    1.7379   -2.2837  -21.0733 C   0  0  0  0  0  0  0  0  0  0  0  0
    2.9128   -1.8072  -21.4248 N   0  0  0  0  0  0  0  0  0  0  0  0
    3.6919   -2.4953  -22.3171 O   0  0  0  0  0  0  0  0  0  0  0  0
    0.8734   -1.5203  -20.0832 C   0  0  0  0  0  0  0  0  0  0  0  0
   -0.4488   -1.1576  -20.7395 C   0  0  0  0  0  0  0  0  0  0  0  0
    4.5849   -2.1331  -22.5843 H   0  0  0  0  0  0  0  0  0  0  0  0
    6.7458   -3.7217  -26.2894 C   0  0  0  0  0  0  0  0  0  0  0  0
    7.2791   -5.1450  -26.2782 C   0  0  0  0  0  0  0  0  0  0  0  0
    7.4973   -5.7172  -21.0305 C   0  0  0  0  0  0  0  0  0  0  0  0
    8.2578   -6.1724  -22.2654 C   0  0  0  0  0  0  0  0  0  0  0  0
    7.7330   -5.4760  -23.4486 N   0  0  0  0  0  0  0  0  0  0  0  0
    8.6208   -4.6263  -24.2554 C   0  0  0  0  0  0  0  0  0  0  0  0
    8.6756   -5.1580  -25.6783 C   0  0  0  0  0  0  0  0  0  0  0  0
    4.1009   -8.2459  -25.2702 C   0  0  0  0  0  0  0  0  0  0  0  0
    3.8562   -9.9287  -28.5898 C   0  0  0  0  0  0  0  0  0  0  0  0
    4.4283   -8.9271  -29.4522 C   0  0  0  0  0  0  0  0  0  0  0  0
    4.8799   -7.7230  -28.9171 N   0  0  0  0  0  0  0  0  0  0  0  0
    4.7782   -7.4876  -27.5481 C   0  0  0  0  0  0  0  0  0  0  0  0
    4.2061   -8.4893  -26.6858 C   0  0  0  0  0  0  0  0  0  0  0  0
 18 19  1  0  0  0
 19 20  1  0  0  0
 20 21  1  0  0  0
 21 22  1  0  0  0
 22 23  1  0  0  0
 23 24  1  0  0  0
 19 24  1  0  0  0
 22  1  1  0  0  0
  1  2  1  0  0  0
  2  3  2  0  0  0
  3  4  1  0  0  0
  4  5  2  0  0  0
  1  5  1  0  0  0
  4 25  1  0  0  0
 25 26  2  0  0  0
 26 27  1  0  0  0
 27 28  2  0  0  0
 28 29  1  0  0  0
 29 30  2  0  0  0
 25 30  1  0  0  0
  3  6  1  0  0  0
  6  7  2  0  0  0
  7  8  1  0  0  0
  8  9  2  0  0  0
  9 10  1  0  0  0
 10 11  2  0  0  0
  6 11  1  0  0  0
  9 12  1  0  0  0
 12 13  2  0  0  0
 13 14  1  0  0  0
 12 15  1  0  0  0
 15 16  1  0  0  0
  8 16  1  0  0  0
 14 17  1  0  0  0
M  END
> <minimizedAffinity>
-7.41689

$$$$
mol_60146017_13


 30 34  0  0  0  0  0  0  0  0999 V2000
    4.5429   -5.7171  -24.3674 N   0  0  0  0  0  0  0  0  0  0  0  0
    8.6866   -4.8926  -24.2485 C   0  0  0  0  0  0  0  0  0  0  0  0
    7.2755   -5.1728  -24.3169 C   0  0  0  0  0  0  0  0  0  0  0  0
    6.5165   -5.3476  -23.1055 C   0  0  0  0  0  0  0  0  0  0  0  0
    5.1520   -5.6187  -23.1717 N   0  0  0  0  0  0  0  0  0  0  0  0
    6.5875   -5.2840  -25.6677 C   0  0  0  0  0  0  0  0  0  0  0  0
    8.3783  -10.1012  -26.4117 C   0  0  0  0  0  0  0  0  0  0  0  0
    8.1270  -11.2506  -27.2423 C   0  0  0  0  0  0  0  0  0  0  0  0
    6.8506   -9.0317  -26.3038 C   0  0  0  0  0  0  0  0  0  0  0  0
    6.9802   -7.7473  -25.6651 C   0  0  0  0  0  0  0  0  0  0  0  0
    6.4579   -6.5684  -26.3064 C   0  0  0  0  0  0  0  0  0  0  0  0
    6.1625   -9.1428  -27.6546 C   0  0  0  0  0  0  0  0  0  0  0  0
    5.6853   -8.0657  -28.2403 N   0  0  0  0  0  0  0  0  0  0  0  0
    5.8086   -6.8440  -27.6328 O   0  0  0  0  0  0  0  0  0  0  0  0
    6.0257  -10.4983  -28.3286 C   0  0  0  0  0  0  0  0  0  0  0  0
    7.4067  -11.0855  -28.5705 C   0  0  0  0  0  0  0  0  0  0  0  0
    5.4459   -6.0253  -28.0780 H   0  0  0  0  0  0  0  0  0  0  0  0
    4.0830   -2.7743  -25.3795 C   0  0  0  0  0  0  0  0  0  0  0  0
    3.7253   -3.2052  -23.9665 C   0  0  0  0  0  0  0  0  0  0  0  0
    3.2744   -8.3753  -24.9567 C   0  0  0  0  0  0  0  0  0  0  0  0
    2.6469   -7.3216  -24.0586 C   0  0  0  0  0  0  0  0  0  0  0  0
    3.1516   -5.9933  -24.4348 N   0  0  0  0  0  0  0  0  0  0  0  0
    2.2161   -4.9508  -24.8810 C   0  0  0  0  0  0  0  0  0  0  0  0
    2.3081   -3.7545  -23.9478 C   0  0  0  0  0  0  0  0  0  0  0  0
    7.2046   -5.2364  -21.7548 C   0  0  0  0  0  0  0  0  0  0  0  0
    7.4830   -2.8110  -18.9349 C   0  0  0  0  0  0  0  0  0  0  0  0
    6.6520   -1.7351  -19.4104 C   0  0  0  0  0  0  0  0  0  0  0  0
    6.0214   -1.8370  -20.6481 N   0  0  0  0  0  0  0  0  0  0  0  0
    6.1946   -2.9794  -21.4260 C   0  0  0  0  0  0  0  0  0  0  0  0
    7.0256   -4.0552  -20.9504 C   0  0  0  0  0  0  0  0  0  0  0  0
 18 19  1  0  0  0
 19 20  1  0  0  0
 20 21  1  0  0  0
 21 22  1  0  0  0
 22 23  1  0  0  0
 23 24  1  0  0  0
 19 24  1  0  0  0
 22  1  1  0  0  0
  1  2  1  0  0  0
  2  3  2  0  0  0
  3  4  1  0  0  0
  4  5  2  0  0  0
  1  5  1  0  0  0
  4 25  1  0  0  0
 25 26  2  0  0  0
 26 27  1  0  0  0
 27 28  2  0  0  0
 28 29  1  0  0  0
 29 30  2  0  0  0
 25 30  1  0  0  0
  3  6  1  0  0  0
  6  7  2  0  0  0
  7  8  1  0  0  0
  8  9  2  0  0  0
  9 10  1  0  0  0
 10 11  2  0  0  0
  6 11  1  0  0  0
  9 12  1  0  0  0
 12 13  2  0  0  0
 13 14  1  0  0  0
 12 15  1  0  0  0
 15 16  1  0  0  0
  8 16  1  0  0  0
 14 17  1  0  0  0
M  END
> <minimizedAffinity>
-7.39758

$$$$
mol_60146017_13


 30 34  0  0  0  0  0  0  0  0999 V2000
    6.2929   -4.9854  -24.5589 N   0  0  0  0  0  0  0  0  0  0  0  0
    2.4600   -6.4935  -23.6107 C   0  0  0  0  0  0  0  0  0  0  0  0
    3.7751   -6.0057  -23.9380 C   0  0  0  0  0  0  0  0  0  0  0  0
    4.0440   -4.5911  -23.9180 C   0  0  0  0  0  0  0  0  0  0  0  0
    5.3157   -4.1194  -24.2345 N   0  0  0  0  0  0  0  0  0  0  0  0
    4.8791   -6.9842  -24.3044 C   0  0  0  0  0  0  0  0  0  0  0  0
    2.2463   -8.7262  -28.4274 C   0  0  0  0  0  0  0  0  0  0  0  0
    2.4694   -9.4756  -29.6369 C   0  0  0  0  0  0  0  0  0  0  0  0
    3.8410   -7.9501  -27.8411 C   0  0  0  0  0  0  0  0  0  0  0  0
    3.8383   -7.3191  -26.5465 C   0  0  0  0  0  0  0  0  0  0  0  0
    4.8818   -7.6152  -25.5990 C   0  0  0  0  0  0  0  0  0  0  0  0
    4.9451   -8.9285  -28.2074 C   0  0  0  0  0  0  0  0  0  0  0  0
    5.8983   -9.1989  -27.3419 N   0  0  0  0  0  0  0  0  0  0  0  0
    5.8957   -8.5987  -26.1104 O   0  0  0  0  0  0  0  0  0  0  0  0
    4.9479   -9.5944  -29.5738 C   0  0  0  0  0  0  0  0  0  0  0  0
    3.6707  -10.4001  -29.7474 C   0  0  0  0  0  0  0  0  0  0  0  0
    6.6203   -8.8042  -25.4525 H   0  0  0  0  0  0  0  0  0  0  0  0
    7.3846   -6.4157  -21.9785 C   0  0  0  0  0  0  0  0  0  0  0  0
    7.2095   -4.9076  -22.0503 C   0  0  0  0  0  0  0  0  0  0  0  0
    7.3790   -4.4824  -27.3138 C   0  0  0  0  0  0  0  0  0  0  0  0
    7.7914   -3.6867  -26.0861 C   0  0  0  0  0  0  0  0  0  0  0  0
    7.5895   -4.5044  -24.8815 N   0  0  0  0  0  0  0  0  0  0  0  0
    8.7298   -4.8245  -24.0106 C   0  0  0  0  0  0  0  0  0  0  0  0
    8.4716   -4.2774  -22.6162 C   0  0  0  0  0  0  0  0  0  0  0  0
    2.9399   -3.6127  -23.5515 C   0  0  0  0  0  0  0  0  0  0  0  0
    1.8694   -1.5481  -20.6355 C   0  0  0  0  0  0  0  0  0  0  0  0
    2.8857   -1.8813  -19.6709 C   0  0  0  0  0  0  0  0  0  0  0  0
    3.8974   -2.7778  -20.0066 N   0  0  0  0  0  0  0  0  0  0  0  0
    3.9263   -3.3521  -21.2752 C   0  0  0  0  0  0  0  0  0  0  0  0
    2.9100   -3.0189  -22.2398 C   0  0  0  0  0  0  0  0  0  0  0  0
 18 19  1  0  0  0
 19 20  1  0  0  0
 20 21  1  0  0  0
 21 22  1  0  0  0
 22 23  1  0  0  0
 23 24  1  0  0  0
 19 24  1  0  0  0
 22  1  1  0  0  0
  1  2  1  0  0  0
  2  3  2  0  0  0
  3  4  1  0  0  0
  4  5  2  0  0  0
  1  5  1  0  0  0
  4 25  1  0  0  0
 25 26  2  0  0  0
 26 27  1  0  0  0
 27 28  2  0  0  0
 28 29  1  0  0  0
 29 30  2  0  0  0
 25 30  1  0  0  0
  3  6  1  0  0  0
  6  7  2  0  0  0
  7  8  1  0  0  0
  8  9  2  0  0  0
  9 10  1  0  0  0
 10 11  2  0  0  0
  6 11  1  0  0  0
  9 12  1  0  0  0
 12 13  2  0  0  0
 13 14  1  0  0  0
 12 15  1  0  0  0
 15 16  1  0  0  0
  8 16  1  0  0  0
 14 17  1  0  0  0
M  END
> <minimizedAffinity>
-7.16653

$$$$
mol_60146017_13


 30 34  0  0  0  0  0  0  0  0999 V2000
    6.0564   -5.3155  -23.6769 N   0  0  0  0  0  0  0  0  0  0  0  0
    2.9926   -3.4599  -25.9206 C   0  0  0  0  0  0  0  0  0  0  0  0
    4.0556   -4.0770  -25.1699 C   0  0  0  0  0  0  0  0  0  0  0  0
    3.7502   -5.0689  -24.1714 C   0  0  0  0  0  0  0  0  0  0  0  0
    4.7781   -5.6656  -23.4454 N   0  0  0  0  0  0  0  0  0  0  0  0
    5.4997   -3.6814  -25.4315 C   0  0  0  0  0  0  0  0  0  0  0  0
    5.8199   -6.8059  -29.5668 C   0  0  0  0  0  0  0  0  0  0  0  0
    6.6538   -7.0177  -30.7218 C   0  0  0  0  0  0  0  0  0  0  0  0
    5.9948   -5.0505  -28.9528 C   0  0  0  0  0  0  0  0  0  0  0  0
    5.3737   -4.7191  -27.6964 C   0  0  0  0  0  0  0  0  0  0  0  0
    6.1209   -4.0129  -26.6879 C   0  0  0  0  0  0  0  0  0  0  0  0
    7.4390   -4.6549  -29.2144 C   0  0  0  0  0  0  0  0  0  0  0  0
    8.1215   -4.0096  -28.2931 N   0  0  0  0  0  0  0  0  0  0  0  0
    7.5306   -3.6944  -27.0980 O   0  0  0  0  0  0  0  0  0  0  0  0
    8.0945   -5.0046  -30.5404 C   0  0  0  0  0  0  0  0  0  0  0  0
    8.0875   -6.5132  -30.7268 C   0  0  0  0  0  0  0  0  0  0  0  0
    8.0494   -3.2040  -26.3977 H   0  0  0  0  0  0  0  0  0  0  0  0
    5.3059   -3.4723  -21.2407 C   0  0  0  0  0  0  0  0  0  0  0  0
    6.5445   -3.2249  -22.0863 C   0  0  0  0  0  0  0  0  0  0  0  0
    7.0429   -8.1380  -23.9641 C   0  0  0  0  0  0  0  0  0  0  0  0
    7.9285   -6.9723  -23.5553 C   0  0  0  0  0  0  0  0  0  0  0  0
    7.1044   -5.9240  -22.9367 N   0  0  0  0  0  0  0  0  0  0  0  0
    7.3650   -5.5057  -21.5517 C   0  0  0  0  0  0  0  0  0  0  0  0
    7.7088   -4.0253  -21.5259 C   0  0  0  0  0  0  0  0  0  0  0  0
    2.3060   -5.4644  -23.9098 C   0  0  0  0  0  0  0  0  0  0  0  0
   -0.6282   -4.2524  -21.9521 C   0  0  0  0  0  0  0  0  0  0  0  0
   -0.0788   -3.0772  -21.3265 C   0  0  0  0  0  0  0  0  0  0  0  0
    1.2445   -2.7148  -21.5662 N   0  0  0  0  0  0  0  0  0  0  0  0
    2.0365   -3.4889  -22.4109 C   0  0  0  0  0  0  0  0  0  0  0  0
    1.4871   -4.6640  -23.0364 C   0  0  0  0  0  0  0  0  0  0  0  0
 18 19  1  0  0  0
 19 20  1  0  0  0
 20 21  1  0  0  0
 21 22  1  0  0  0
 22 23  1  0  0  0
 23 24  1  0  0  0
 19 24  1  0  0  0
 22  1  1  0  0  0
  1  2  1  0  0  0
  2  3  2  0  0  0
  3  4  1  0  0  0
  4  5  2  0  0  0
  1  5  1  0  0  0
  4 25  1  0  0  0
 25 26  2  0  0  0
 26 27  1  0  0  0
 27 28  2  0  0  0
 28 29  1  0  0  0
 29 30  2  0  0  0
 25 30  1  0  0  0
  3  6  1  0  0  0
  6  7  2  0  0  0
  7  8  1  0  0  0
  8  9  2  0  0  0
  9 10  1  0  0  0
 10 11  2  0  0  0
  6 11  1  0  0  0
  9 12  1  0  0  0
 12 13  2  0  0  0
 13 14  1  0  0  0
 12 15  1  0  0  0
 15 16  1  0  0  0
  8 16  1  0  0  0
 14 17  1  0  0  0
M  END
> <minimizedAffinity>
-7.15889

$$$$
mol_11639637_14


 30 34  0  0  0  0  0  0  0  0999 V2000
    6.2709   -5.2701  -23.4986 N   0  0  0  0  0  0  0  0  0  0  0  0
    2.2315   -4.3069  -24.2862 C   0  0  0  0  0  0  0  0  0  0  0  0
    3.6134   -4.6079  -24.0144 C   0  0  0  0  0  0  0  0  0  0  0  0
    4.0689   -5.9741  -24.0275 C   0  0  0  0  0  0  0  0  0  0  0  0
    5.4053   -6.2652  -23.7647 N   0  0  0  0  0  0  0  0  0  0  0  0
    4.5912   -3.4836  -23.7137 C   0  0  0  0  0  0  0  0  0  0  0  0
    2.3348   -2.4679  -19.1484 C   0  0  0  0  0  0  0  0  0  0  0  0
    2.6082   -1.7689  -17.9192 C   0  0  0  0  0  0  0  0  0  0  0  0
    3.9311   -2.9283  -20.0023 C   0  0  0  0  0  0  0  0  0  0  0  0
    3.8423   -3.4684  -21.3343 C   0  0  0  0  0  0  0  0  0  0  0  0
    4.6800   -2.9434  -22.3816 C   0  0  0  0  0  0  0  0  0  0  0  0
    4.9089   -1.8039  -19.7017 C   0  0  0  0  0  0  0  0  0  0  0  0
    5.6741   -1.3244  -20.6585 N   0  0  0  0  0  0  0  0  0  0  0  0
    5.5896   -1.8382  -21.9256 O   0  0  0  0  0  0  0  0  0  0  0  0
    5.0026   -1.2338  -18.2958 C   0  0  0  0  0  0  0  0  0  0  0  0
    3.6529   -0.6654  -17.8886 C   0  0  0  0  0  0  0  0  0  0  0  0
    6.1713   -1.4737  -22.6528 H   0  0  0  0  0  0  0  0  0  0  0  0
    7.0222   -3.9581  -26.2572 C   0  0  0  0  0  0  0  0  0  0  0  0
    7.0363   -5.4639  -26.0511 C   0  0  0  0  0  0  0  0  0  0  0  0
    7.5750   -5.3967  -20.7958 C   0  0  0  0  0  0  0  0  0  0  0  0
    8.0059   -6.2454  -21.9809 C   0  0  0  0  0  0  0  0  0  0  0  0
    7.6334   -5.5669  -23.2306 N   0  0  0  0  0  0  0  0  0  0  0  0
    8.6715   -5.1957  -24.2031 C   0  0  0  0  0  0  0  0  0  0  0  0
    8.3976   -5.8908  -25.5267 C   0  0  0  0  0  0  0  0  0  0  0  0
    3.0911   -7.0983  -24.3283 C   0  0  0  0  0  0  0  0  0  0  0  0
    2.0177   -9.1881  -27.2252 C   0  0  0  0  0  0  0  0  0  0  0  0
    2.8541   -8.6617  -28.2729 C   0  0  0  0  0  0  0  0  0  0  0  0
    3.7501   -7.6316  -27.9973 N   0  0  0  0  0  0  0  0  0  0  0  0
    3.8373   -7.1106  -26.7085 C   0  0  0  0  0  0  0  0  0  0  0  0
    3.0009   -7.6370  -25.6609 C   0  0  0  0  0  0  0  0  0  0  0  0
 18 19  1  0  0  0
 19 20  1  0  0  0
 20 21  1  0  0  0
 21 22  1  0  0  0
 22 23  1  0  0  0
 23 24  1  0  0  0
 19 24  1  0  0  0
 22  1  1  0  0  0
  1  2  1  0  0  0
  2  3  2  0  0  0
  3  4  1  0  0  0
  4  5  2  0  0  0
  1  5  1  0  0  0
  4 25  1  0  0  0
 25 26  2  0  0  0
 26 27  1  0  0  0
 27 28  2  0  0  0
 28 29  1  0  0  0
 29 30  2  0  0  0
 25 30  1  0  0  0
  3  6  1  0  0  0
  6  7  2  0  0  0
  7  8  1  0  0  0
  8  9  2  0  0  0
  9 10  1  0  0  0
 10 11  2  0  0  0
  6 11  1  0  0  0
  9 12  1  0  0  0
 12 13  2  0  0  0
 13 14  1  0  0  0
 12 15  1  0  0  0
 15 16  1  0  0  0
  8 16  1  0  0  0
 14 17  1  0  0  0
M  END
> <minimizedAffinity>
-7.91375

$$$$
mol_11639637_14


 30 34  0  0  0  0  0  0  0  0999 V2000
    6.3725   -5.6191  -23.8414 N   0  0  0  0  0  0  0  0  0  0  0  0
    2.2944   -5.9425  -24.9041 C   0  0  0  0  0  0  0  0  0  0  0  0
    3.6795   -5.8061  -24.5335 C   0  0  0  0  0  0  0  0  0  0  0  0
    4.5874   -6.9079  -24.7227 C   0  0  0  0  0  0  0  0  0  0  0  0
    5.9268   -6.7759  -24.3644 N   0  0  0  0  0  0  0  0  0  0  0  0
    4.1829   -4.4992  -23.9427 C   0  0  0  0  0  0  0  0  0  0  0  0
   -0.5194   -3.2818  -22.1065 C   0  0  0  0  0  0  0  0  0  0  0  0
   -1.1306   -2.3864  -21.1585 C   0  0  0  0  0  0  0  0  0  0  0  0
    1.2727   -3.5698  -21.6654 C   0  0  0  0  0  0  0  0  0  0  0  0
    2.0838   -4.2923  -22.6111 C   0  0  0  0  0  0  0  0  0  0  0  0
    3.3718   -3.7766  -22.9970 C   0  0  0  0  0  0  0  0  0  0  0  0
    1.7763   -2.2629  -21.0747 C   0  0  0  0  0  0  0  0  0  0  0  0
    2.9530   -1.7919  -21.4273 N   0  0  0  0  0  0  0  0  0  0  0  0
    3.7244   -2.4792  -22.3268 O   0  0  0  0  0  0  0  0  0  0  0  0
    0.9202   -1.5003  -20.0766 C   0  0  0  0  0  0  0  0  0  0  0  0
   -0.4018   -1.1246  -20.7259 C   0  0  0  0  0  0  0  0  0  0  0  0
    4.6189   -2.1211  -22.5948 H   0  0  0  0  0  0  0  0  0  0  0  0
    6.7747   -3.7321  -26.3260 C   0  0  0  0  0  0  0  0  0  0  0  0
    7.2922   -5.1611  -26.3078 C   0  0  0  0  0  0  0  0  0  0  0  0
    7.4960   -5.7129  -21.0573 C   0  0  0  0  0  0  0  0  0  0  0  0
    8.2535   -6.1819  -22.2890 C   0  0  0  0  0  0  0  0  0  0  0  0
    7.7381   -5.4847  -23.4761 N   0  0  0  0  0  0  0  0  0  0  0  0
    8.6365   -4.6484  -24.2851 C   0  0  0  0  0  0  0  0  0  0  0  0
    8.6876   -5.1869  -25.7056 C   0  0  0  0  0  0  0  0  0  0  0  0
    4.0839   -8.2147  -25.3136 C   0  0  0  0  0  0  0  0  0  0  0  0
    3.8261   -9.8781  -28.6420 C   0  0  0  0  0  0  0  0  0  0  0  0
    4.4069   -8.8768  -29.4990 C   0  0  0  0  0  0  0  0  0  0  0  0
    4.8683   -7.6794  -28.9576 N   0  0  0  0  0  0  0  0  0  0  0  0
    4.7682   -7.4503  -27.5873 C   0  0  0  0  0  0  0  0  0  0  0  0
    4.1874   -8.4515  -26.7305 C   0  0  0  0  0  0  0  0  0  0  0  0
 18 19  1  0  0  0
 19 20  1  0  0  0
 20 21  1  0  0  0
 21 22  1  0  0  0
 22 23  1  0  0  0
 23 24  1  0  0  0
 19 24  1  0  0  0
 22  1  1  0  0  0
  1  2  1  0  0  0
  2  3  2  0  0  0
  3  4  1  0  0  0
  4  5  2  0  0  0
  1  5  1  0  0  0
  4 25  1  0  0  0
 25 26  2  0  0  0
 26 27  1  0  0  0
 27 28  2  0  0  0
 28 29  1  0  0  0
 29 30  2  0  0  0
 25 30  1  0  0  0
  3  6  1  0  0  0
  6  7  2  0  0  0
  7  8  1  0  0  0
  8  9  2  0  0  0
  9 10  1  0  0  0
 10 11  2  0  0  0
  6 11  1  0  0  0
  9 12  1  0  0  0
 12 13  2  0  0  0
 13 14  1  0  0  0
 12 15  1  0  0  0
 15 16  1  0  0  0
  8 16  1  0  0  0
 14 17  1  0  0  0
M  END
> <minimizedAffinity>
-7.41108

$$$$
mol_11639637_14


 30 34  0  0  0  0  0  0  0  0999 V2000
    4.5473   -5.7274  -24.3715 N   0  0  0  0  0  0  0  0  0  0  0  0
    8.6929   -4.9115  -24.2584 C   0  0  0  0  0  0  0  0  0  0  0  0
    7.2812   -5.1889  -24.3249 C   0  0  0  0  0  0  0  0  0  0  0  0
    6.5235   -5.3623  -23.1124 C   0  0  0  0  0  0  0  0  0  0  0  0
    5.1583   -5.6305  -23.1767 N   0  0  0  0  0  0  0  0  0  0  0  0
    6.5909   -5.2984  -25.6747 C   0  0  0  0  0  0  0  0  0  0  0  0
    8.3772  -10.1162  -26.4256 C   0  0  0  0  0  0  0  0  0  0  0  0
    8.1238  -11.2647  -27.2568 C   0  0  0  0  0  0  0  0  0  0  0  0
    6.8505   -9.0457  -26.3144 C   0  0  0  0  0  0  0  0  0  0  0  0
    6.9819   -7.7621  -25.6749 C   0  0  0  0  0  0  0  0  0  0  0  0
    6.4594   -6.5821  -26.3143 C   0  0  0  0  0  0  0  0  0  0  0  0
    6.1602   -9.1552  -27.6642 C   0  0  0  0  0  0  0  0  0  0  0  0
    5.6828   -8.0772  -28.2483 N   0  0  0  0  0  0  0  0  0  0  0  0
    5.8080   -6.8562  -27.6399 O   0  0  0  0  0  0  0  0  0  0  0  0
    6.0214  -10.5101  -28.3392 C   0  0  0  0  0  0  0  0  0  0  0  0
    7.4016  -11.0980  -28.5838 C   0  0  0  0  0  0  0  0  0  0  0  0
    5.4451   -6.0369  -28.0839 H   0  0  0  0  0  0  0  0  0  0  0  0
    4.0921   -2.7840  -25.3839 C   0  0  0  0  0  0  0  0  0  0  0  0
    3.7354   -3.2138  -23.9703 C   0  0  0  0  0  0  0  0  0  0  0  0
    3.2725   -8.3831  -24.9585 C   0  0  0  0  0  0  0  0  0  0  0  0
    2.6484   -7.3280  -24.0596 C   0  0  0  0  0  0  0  0  0  0  0  0
    3.1554   -6.0008  -24.4370 N   0  0  0  0  0  0  0  0  0  0  0  0
    2.2214   -4.9565  -24.8820 C   0  0  0  0  0  0  0  0  0  0  0  0
    2.3172   -3.7602  -23.9494 C   0  0  0  0  0  0  0  0  0  0  0  0
    7.2138   -5.2527  -21.7627 C   0  0  0  0  0  0  0  0  0  0  0  0
    7.5106   -2.8232  -18.9482 C   0  0  0  0  0  0  0  0  0  0  0  0
    6.6858   -1.7431  -19.4250 C   0  0  0  0  0  0  0  0  0  0  0  0
    6.0532   -1.8436  -20.6618 N   0  0  0  0  0  0  0  0  0  0  0  0
    6.2183   -2.9887  -21.4375 C   0  0  0  0  0  0  0  0  0  0  0  0
    7.0431   -4.0686  -20.9606 C   0  0  0  0  0  0  0  0  0  0  0  0
 18 19  1  0  0  0
 19 20  1  0  0  0
 20 21  1  0  0  0
 21 22  1  0  0  0
 22 23  1  0  0  0
 23 24  1  0  0  0
 19 24  1  0  0  0
 22  1  1  0  0  0
  1  2  1  0  0  0
  2  3  2  0  0  0
  3  4  1  0  0  0
  4  5  2  0  0  0
  1  5  1  0  0  0
  4 25  1  0  0  0
 25 26  2  0  0  0
 26 27  1  0  0  0
 27 28  2  0  0  0
 28 29  1  0  0  0
 29 30  2  0  0  0
 25 30  1  0  0  0
  3  6  1  0  0  0
  6  7  2  0  0  0
  7  8  1  0  0  0
  8  9  2  0  0  0
  9 10  1  0  0  0
 10 11  2  0  0  0
  6 11  1  0  0  0
  9 12  1  0  0  0
 12 13  2  0  0  0
 13 14  1  0  0  0
 12 15  1  0  0  0
 15 16  1  0  0  0
  8 16  1  0  0  0
 14 17  1  0  0  0
M  END
> <minimizedAffinity>
-7.39321

$$$$
mol_11639637_14


 30 34  0  0  0  0  0  0  0  0999 V2000
    6.0972   -5.0588  -24.7377 N   0  0  0  0  0  0  0  0  0  0  0  0
    2.3644   -6.6699  -23.5820 C   0  0  0  0  0  0  0  0  0  0  0  0
    3.6460   -6.1468  -23.9799 C   0  0  0  0  0  0  0  0  0  0  0  0
    3.8678   -4.7239  -24.0018 C   0  0  0  0  0  0  0  0  0  0  0  0
    5.1071   -4.2182  -24.3865 N   0  0  0  0  0  0  0  0  0  0  0  0
    4.7645   -7.0965  -24.3767 C   0  0  0  0  0  0  0  0  0  0  0  0
    2.1226   -8.8071  -28.5070 C   0  0  0  0  0  0  0  0  0  0  0  0
    2.3472   -9.5282  -29.7333 C   0  0  0  0  0  0  0  0  0  0  0  0
    3.7083   -8.0123  -27.9213 C   0  0  0  0  0  0  0  0  0  0  0  0
    3.7071   -7.4072  -26.6145 C   0  0  0  0  0  0  0  0  0  0  0  0
    4.7657   -7.7018  -25.6835 C   0  0  0  0  0  0  0  0  0  0  0  0
    4.8269   -8.9621  -28.3180 C   0  0  0  0  0  0  0  0  0  0  0  0
    5.7939   -9.2312  -27.4675 N   0  0  0  0  0  0  0  0  0  0  0  0
    5.7927   -8.6555  -26.2244 O   0  0  0  0  0  0  0  0  0  0  0  0
    4.8281   -9.6009  -29.6973 C   0  0  0  0  0  0  0  0  0  0  0  0
    3.5647  -10.4273  -29.8741 C   0  0  0  0  0  0  0  0  0  0  0  0
    6.5278   -8.8600  -25.5780 H   0  0  0  0  0  0  0  0  0  0  0  0
    7.3638   -6.4461  -22.2144 C   0  0  0  0  0  0  0  0  0  0  0  0
    7.1424   -4.9439  -22.2815 C   0  0  0  0  0  0  0  0  0  0  0  0
    7.0216   -4.5379  -27.5477 C   0  0  0  0  0  0  0  0  0  0  0  0
    7.4755   -3.7252  -26.3460 C   0  0  0  0  0  0  0  0  0  0  0  0
    7.3607   -4.5430  -25.1299 N   0  0  0  0  0  0  0  0  0  0  0  0
    8.5541   -4.8268  -24.3197 C   0  0  0  0  0  0  0  0  0  0  0  0
    8.3545   -4.2809  -22.9152 C   0  0  0  0  0  0  0  0  0  0  0  0
    2.7492   -3.7743  -23.6049 C   0  0  0  0  0  0  0  0  0  0  0  0
    1.7840   -1.6220  -20.7157 C   0  0  0  0  0  0  0  0  0  0  0  0
    2.8742   -1.8698  -19.8078 C   0  0  0  0  0  0  0  0  0  0  0  0
    3.8992   -2.7400  -20.1715 N   0  0  0  0  0  0  0  0  0  0  0  0
    3.8698   -3.3704  -21.4132 C   0  0  0  0  0  0  0  0  0  0  0  0
    2.7796   -3.1225  -22.3209 C   0  0  0  0  0  0  0  0  0  0  0  0
 18 19  1  0  0  0
 19 20  1  0  0  0
 20 21  1  0  0  0
 21 22  1  0  0  0
 22 23  1  0  0  0
 23 24  1  0  0  0
 19 24  1  0  0  0
 22  1  1  0  0  0
  1  2  1  0  0  0
  2  3  2  0  0  0
  3  4  1  0  0  0
  4  5  2  0  0  0
  1  5  1  0  0  0
  4 25  1  0  0  0
 25 26  2  0  0  0
 26 27  1  0  0  0
 27 28  2  0  0  0
 28 29  1  0  0  0
 29 30  2  0  0  0
 25 30  1  0  0  0
  3  6  1  0  0  0
  6  7  2  0  0  0
  7  8  1  0  0  0
  8  9  2  0  0  0
  9 10  1  0  0  0
 10 11  2  0  0  0
  6 11  1  0  0  0
  9 12  1  0  0  0
 12 13  2  0  0  0
 13 14  1  0  0  0
 12 15  1  0  0  0
 15 16  1  0  0  0
  8 16  1  0  0  0
 14 17  1  0  0  0
M  END
> <minimizedAffinity>
-7.21192

$$$$
mol_11639637_14


 30 34  0  0  0  0  0  0  0  0999 V2000
    6.0513   -5.3286  -23.6666 N   0  0  0  0  0  0  0  0  0  0  0  0
    3.0231   -3.4439  -25.9343 C   0  0  0  0  0  0  0  0  0  0  0  0
    4.0741   -4.0710  -25.1751 C   0  0  0  0  0  0  0  0  0  0  0  0
    3.7520   -5.0657  -24.1846 C   0  0  0  0  0  0  0  0  0  0  0  0
    4.7685   -5.6720  -23.4505 N   0  0  0  0  0  0  0  0  0  0  0  0
    5.5234   -3.6829  -25.4193 C   0  0  0  0  0  0  0  0  0  0  0  0
    5.8747   -6.8034  -29.5551 C   0  0  0  0  0  0  0  0  0  0  0  0
    6.7209   -7.0181  -30.7005 C   0  0  0  0  0  0  0  0  0  0  0  0
    6.0521   -5.0498  -28.9365 C   0  0  0  0  0  0  0  0  0  0  0  0
    5.4182   -4.7167  -27.6870 C   0  0  0  0  0  0  0  0  0  0  0  0
    6.1573   -4.0160  -26.6688 C   0  0  0  0  0  0  0  0  0  0  0  0
    7.5013   -4.6617  -29.1806 C   0  0  0  0  0  0  0  0  0  0  0  0
    8.1765   -4.0215  -28.2505 N   0  0  0  0  0  0  0  0  0  0  0  0
    7.5735   -3.7048  -27.0619 O   0  0  0  0  0  0  0  0  0  0  0  0
    8.1704   -5.0132  -30.4995 C   0  0  0  0  0  0  0  0  0  0  0  0
    8.1573   -6.5214  -30.6881 C   0  0  0  0  0  0  0  0  0  0  0  0
    8.0867   -3.2181  -26.3549 H   0  0  0  0  0  0  0  0  0  0  0  0
    5.2951   -3.4819  -21.2348 C   0  0  0  0  0  0  0  0  0  0  0  0
    6.5430   -3.2440  -22.0693 C   0  0  0  0  0  0  0  0  0  0  0  0
    7.0162   -8.1591  -23.9485 C   0  0  0  0  0  0  0  0  0  0  0  0
    7.9083   -7.0014  -23.5306 C   0  0  0  0  0  0  0  0  0  0  0  0
    7.0875   -5.9469  -22.9180 N   0  0  0  0  0  0  0  0  0  0  0  0
    7.3396   -5.5323  -21.5304 C   0  0  0  0  0  0  0  0  0  0  0  0
    7.6956   -4.0549  -21.4997 C   0  0  0  0  0  0  0  0  0  0  0  0
    2.3028   -5.4537  -23.9406 C   0  0  0  0  0  0  0  0  0  0  0  0
   -0.6367   -4.2506  -21.9851 C   0  0  0  0  0  0  0  0  0  0  0  0
   -0.0828   -3.0904  -21.3359 C   0  0  0  0  0  0  0  0  0  0  0  0
    1.2452   -2.7348  -21.5596 N   0  0  0  0  0  0  0  0  0  0  0  0
    2.0375   -3.5011  -22.4110 C   0  0  0  0  0  0  0  0  0  0  0  0
    1.4836   -4.6612  -23.0601 C   0  0  0  0  0  0  0  0  0  0  0  0
 18 19  1  0  0  0
 19 20  1  0  0  0
 20 21  1  0  0  0
 21 22  1  0  0  0
 22 23  1  0  0  0
 23 24  1  0  0  0
 19 24  1  0  0  0
 22  1  1  0  0  0
  1  2  1  0  0  0
  2  3  2  0  0  0
  3  4  1  0  0  0
  4  5  2  0  0  0
  1  5  1  0  0  0
  4 25  1  0  0  0
 25 26  2  0  0  0
 26 27  1  0  0  0
 27 28  2  0  0  0
 28 29  1  0  0  0
 29 30  2  0  0  0
 25 30  1  0  0  0
  3  6  1  0  0  0
  6  7  2  0  0  0
  7  8  1  0  0  0
  8  9  2  0  0  0
  9 10  1  0  0  0
 10 11  2  0  0  0
  6 11  1  0  0  0
  9 12  1  0  0  0
 12 13  2  0  0  0
 13 14  1  0  0  0
 12 15  1  0  0  0
 15 16  1  0  0  0
  8 16  1  0  0  0
 14 17  1  0  0  0
M  END
> <minimizedAffinity>
-7.16007

$$$$
mol_74627710_15


 30 34  0  0  0  0  0  0  0  0999 V2000
    6.2704   -5.2746  -23.4973 N   0  0  0  0  0  0  0  0  0  0  0  0
    2.2354   -4.3043  -24.2983 C   0  0  0  0  0  0  0  0  0  0  0  0
    3.6159   -4.6078  -24.0220 C   0  0  0  0  0  0  0  0  0  0  0  0
    4.0682   -5.9752  -24.0297 C   0  0  0  0  0  0  0  0  0  0  0  0
    5.4032   -6.2685  -23.7625 N   0  0  0  0  0  0  0  0  0  0  0  0
    4.5956   -3.4849  -23.7224 C   0  0  0  0  0  0  0  0  0  0  0  0
    2.3394   -2.4596  -19.1591 C   0  0  0  0  0  0  0  0  0  0  0  0
    2.6136   -1.7598  -17.9306 C   0  0  0  0  0  0  0  0  0  0  0  0
    3.9351   -2.9239  -20.0118 C   0  0  0  0  0  0  0  0  0  0  0  0
    3.8459   -3.4655  -21.3433 C   0  0  0  0  0  0  0  0  0  0  0  0
    4.6848   -2.9432  -22.3910 C   0  0  0  0  0  0  0  0  0  0  0  0
    4.9149   -1.8009  -19.7122 C   0  0  0  0  0  0  0  0  0  0  0  0
    5.6812   -1.3239  -20.6693 N   0  0  0  0  0  0  0  0  0  0  0  0
    5.5963   -1.8391  -21.9358 O   0  0  0  0  0  0  0  0  0  0  0  0
    5.0089   -1.2293  -18.3070 C   0  0  0  0  0  0  0  0  0  0  0  0
    3.6603   -0.6579  -17.9010 C   0  0  0  0  0  0  0  0  0  0  0  0
    6.1789   -1.4764  -22.6632 H   0  0  0  0  0  0  0  0  0  0  0  0
    7.0334   -3.9608  -26.2518 C   0  0  0  0  0  0  0  0  0  0  0  0
    7.0444   -5.4670  -26.0473 C   0  0  0  0  0  0  0  0  0  0  0  0
    7.5649   -5.4062  -20.7901 C   0  0  0  0  0  0  0  0  0  0  0  0
    7.9987   -6.2542  -21.9746 C   0  0  0  0  0  0  0  0  0  0  0  0
    7.6316   -5.5738  -23.2249 N   0  0  0  0  0  0  0  0  0  0  0  0
    8.6736   -5.2031  -24.1933 C   0  0  0  0  0  0  0  0  0  0  0  0
    8.4033   -5.8965  -25.5186 C   0  0  0  0  0  0  0  0  0  0  0  0
    3.0884   -7.0980  -24.3293 C   0  0  0  0  0  0  0  0  0  0  0  0
    2.0074   -9.1849  -27.2255 C   0  0  0  0  0  0  0  0  0  0  0  0
    2.8425   -8.6589  -28.2744 C   0  0  0  0  0  0  0  0  0  0  0  0
    3.7402   -7.6301  -27.9998 N   0  0  0  0  0  0  0  0  0  0  0  0
    3.8304   -7.1098  -26.7109 C   0  0  0  0  0  0  0  0  0  0  0  0
    2.9953   -7.6359  -25.6620 C   0  0  0  0  0  0  0  0  0  0  0  0
 18 19  1  0  0  0
 19 20  1  0  0  0
 20 21  1  0  0  0
 21 22  1  0  0  0
 22 23  1  0  0  0
 23 24  1  0  0  0
 19 24  1  0  0  0
 22  1  1  0  0  0
  1  2  1  0  0  0
  2  3  2  0  0  0
  3  4  1  0  0  0
  4  5  2  0  0  0
  1  5  1  0  0  0
  4 25  1  0  0  0
 25 26  2  0  0  0
 26 27  1  0  0  0
 27 28  2  0  0  0
 28 29  1  0  0  0
 29 30  2  0  0  0
 25 30  1  0  0  0
  3  6  1  0  0  0
  6  7  2  0  0  0
  7  8  1  0  0  0
  8  9  2  0  0  0
  9 10  1  0  0  0
 10 11  2  0  0  0
  6 11  1  0  0  0
  9 12  1  0  0  0
 12 13  2  0  0  0
 13 14  1  0  0  0
 12 15  1  0  0  0
 15 16  1  0  0  0
  8 16  1  0  0  0
 14 17  1  0  0  0
M  END
> <minimizedAffinity>
-7.88815

$$$$
mol_74627710_15


 30 34  0  0  0  0  0  0  0  0999 V2000
    6.3624   -5.6350  -23.8328 N   0  0  0  0  0  0  0  0  0  0  0  0
    2.2848   -5.9672  -24.8947 C   0  0  0  0  0  0  0  0  0  0  0  0
    3.6696   -5.8278  -24.5243 C   0  0  0  0  0  0  0  0  0  0  0  0
    4.5807   -6.9265  -24.7168 C   0  0  0  0  0  0  0  0  0  0  0  0
    5.9198   -6.7916  -24.3586 N   0  0  0  0  0  0  0  0  0  0  0  0
    4.1695   -4.5210  -23.9303 C   0  0  0  0  0  0  0  0  0  0  0  0
   -0.5437   -3.3037  -22.1225 C   0  0  0  0  0  0  0  0  0  0  0  0
   -1.1606   -2.4084  -21.1780 C   0  0  0  0  0  0  0  0  0  0  0  0
    1.2456   -3.5918  -21.6706 C   0  0  0  0  0  0  0  0  0  0  0  0
    2.0624   -4.3142  -22.6114 C   0  0  0  0  0  0  0  0  0  0  0  0
    3.3528   -3.7985  -22.9896 C   0  0  0  0  0  0  0  0  0  0  0  0
    1.7456   -2.2850  -21.0766 C   0  0  0  0  0  0  0  0  0  0  0  0
    2.9245   -1.8139  -21.4221 N   0  0  0  0  0  0  0  0  0  0  0  0
    3.7014   -2.5012  -22.3170 O   0  0  0  0  0  0  0  0  0  0  0  0
    0.8836   -1.5225  -20.0837 C   0  0  0  0  0  0  0  0  0  0  0  0
   -0.4344   -1.1466  -20.7409 C   0  0  0  0  0  0  0  0  0  0  0  0
    4.5974   -2.1430  -22.5795 H   0  0  0  0  0  0  0  0  0  0  0  0
    6.7466   -3.7016  -26.2844 C   0  0  0  0  0  0  0  0  0  0  0  0
    7.2741   -5.1272  -26.2924 C   0  0  0  0  0  0  0  0  0  0  0  0
    7.4919   -5.7700  -21.0529 C   0  0  0  0  0  0  0  0  0  0  0  0
    8.2502   -6.2118  -22.2939 C   0  0  0  0  0  0  0  0  0  0  0  0
    7.7277   -5.4975  -23.4676 N   0  0  0  0  0  0  0  0  0  0  0  0
    8.6187   -4.6408  -24.2634 C   0  0  0  0  0  0  0  0  0  0  0  0
    8.6708   -5.1538  -25.6933 C   0  0  0  0  0  0  0  0  0  0  0  0
    4.0806   -8.2333  -25.3107 C   0  0  0  0  0  0  0  0  0  0  0  0
    3.8248   -9.8884  -28.6434 C   0  0  0  0  0  0  0  0  0  0  0  0
    4.4014   -8.8829  -29.4982 C   0  0  0  0  0  0  0  0  0  0  0  0
    4.8596   -7.6855  -28.9540 N   0  0  0  0  0  0  0  0  0  0  0  0
    4.7601   -7.4605  -27.5830 C   0  0  0  0  0  0  0  0  0  0  0  0
    4.1835   -8.4660  -26.7282 C   0  0  0  0  0  0  0  0  0  0  0  0
 18 19  1  0  0  0
 19 20  1  0  0  0
 20 21  1  0  0  0
 21 22  1  0  0  0
 22 23  1  0  0  0
 23 24  1  0  0  0
 19 24  1  0  0  0
 22  1  1  0  0  0
  1  2  1  0  0  0
  2  3  2  0  0  0
  3  4  1  0  0  0
  4  5  2  0  0  0
  1  5  1  0  0  0
  4 25  1  0  0  0
 25 26  2  0  0  0
 26 27  1  0  0  0
 27 28  2  0  0  0
 28 29  1  0  0  0
 29 30  2  0  0  0
 25 30  1  0  0  0
  3  6  1  0  0  0
  6  7  2  0  0  0
  7  8  1  0  0  0
  8  9  2  0  0  0
  9 10  1  0  0  0
 10 11  2  0  0  0
  6 11  1  0  0  0
  9 12  1  0  0  0
 12 13  2  0  0  0
 13 14  1  0  0  0
 12 15  1  0  0  0
 15 16  1  0  0  0
  8 16  1  0  0  0
 14 17  1  0  0  0
M  END
> <minimizedAffinity>
-7.42850

$$$$
mol_74627710_15


 30 34  0  0  0  0  0  0  0  0999 V2000
    4.5395   -5.7207  -24.3691 N   0  0  0  0  0  0  0  0  0  0  0  0
    8.6830   -4.8937  -24.2592 C   0  0  0  0  0  0  0  0  0  0  0  0
    7.2720   -5.1748  -24.3246 C   0  0  0  0  0  0  0  0  0  0  0  0
    6.5154   -5.3487  -23.1115 C   0  0  0  0  0  0  0  0  0  0  0  0
    5.1509   -5.6205  -23.1748 N   0  0  0  0  0  0  0  0  0  0  0  0
    6.5814   -5.2880  -25.6739 C   0  0  0  0  0  0  0  0  0  0  0  0
    8.3772  -10.1032  -26.4177 C   0  0  0  0  0  0  0  0  0  0  0  0
    8.1258  -11.2536  -27.2469 C   0  0  0  0  0  0  0  0  0  0  0  0
    6.8483   -9.0358  -26.3076 C   0  0  0  0  0  0  0  0  0  0  0  0
    6.9775   -7.7508  -25.6702 C   0  0  0  0  0  0  0  0  0  0  0  0
    6.4523   -6.5729  -26.3114 C   0  0  0  0  0  0  0  0  0  0  0  0
    6.1576   -9.1489  -27.6570 C   0  0  0  0  0  0  0  0  0  0  0  0
    5.6779   -8.0729  -28.2425 N   0  0  0  0  0  0  0  0  0  0  0  0
    5.8007   -6.8506  -27.6362 O   0  0  0  0  0  0  0  0  0  0  0  0
    6.0215  -10.5051  -28.3296 C   0  0  0  0  0  0  0  0  0  0  0  0
    7.4026  -11.0906  -28.5739 C   0  0  0  0  0  0  0  0  0  0  0  0
    5.4360   -6.0327  -28.0814 H   0  0  0  0  0  0  0  0  0  0  0  0
    4.0758   -2.7789  -25.3822 C   0  0  0  0  0  0  0  0  0  0  0  0
    3.7212   -3.2090  -23.9681 C   0  0  0  0  0  0  0  0  0  0  0  0
    3.2715   -8.3799  -24.9542 C   0  0  0  0  0  0  0  0  0  0  0  0
    2.6452   -7.3262  -24.0554 C   0  0  0  0  0  0  0  0  0  0  0  0
    3.1483   -5.9978  -24.4335 N   0  0  0  0  0  0  0  0  0  0  0  0
    2.2112   -4.9562  -24.8784 C   0  0  0  0  0  0  0  0  0  0  0  0
    2.3044   -3.7592  -23.9462 C   0  0  0  0  0  0  0  0  0  0  0  0
    7.2061   -5.2355  -21.7622 C   0  0  0  0  0  0  0  0  0  0  0  0
    7.4836   -2.8094  -18.9428 C   0  0  0  0  0  0  0  0  0  0  0  0
    6.6484   -1.7359  -19.4166 C   0  0  0  0  0  0  0  0  0  0  0  0
    6.0155   -1.8397  -20.6528 N   0  0  0  0  0  0  0  0  0  0  0  0
    6.1902   -2.9815  -21.4312 C   0  0  0  0  0  0  0  0  0  0  0  0
    7.0254   -4.0549  -20.9575 C   0  0  0  0  0  0  0  0  0  0  0  0
 18 19  1  0  0  0
 19 20  1  0  0  0
 20 21  1  0  0  0
 21 22  1  0  0  0
 22 23  1  0  0  0
 23 24  1  0  0  0
 19 24  1  0  0  0
 22  1  1  0  0  0
  1  2  1  0  0  0
  2  3  2  0  0  0
  3  4  1  0  0  0
  4  5  2  0  0  0
  1  5  1  0  0  0
  4 25  1  0  0  0
 25 26  2  0  0  0
 26 27  1  0  0  0
 27 28  2  0  0  0
 28 29  1  0  0  0
 29 30  2  0  0  0
 25 30  1  0  0  0
  3  6  1  0  0  0
  6  7  2  0  0  0
  7  8  1  0  0  0
  8  9  2  0  0  0
  9 10  1  0  0  0
 10 11  2  0  0  0
  6 11  1  0  0  0
  9 12  1  0  0  0
 12 13  2  0  0  0
 13 14  1  0  0  0
 12 15  1  0  0  0
 15 16  1  0  0  0
  8 16  1  0  0  0
 14 17  1  0  0  0
M  END
> <minimizedAffinity>
-7.38610

$$$$
mol_74627710_15


 30 34  0  0  0  0  0  0  0  0999 V2000
    6.7777   -4.4501  -21.3019 N   0  0  0  0  0  0  0  0  0  0  0  0
    4.1584   -5.9941  -24.2378 C   0  0  0  0  0  0  0  0  0  0  0  0
    5.0668   -5.4909  -23.2398 C   0  0  0  0  0  0  0  0  0  0  0  0
    4.8238   -4.2116  -22.6245 C   0  0  0  0  0  0  0  0  0  0  0  0
    5.7022   -3.7250  -21.6594 N   0  0  0  0  0  0  0  0  0  0  0  0
    6.2817   -6.3100  -22.8360 C   0  0  0  0  0  0  0  0  0  0  0  0
    5.9001   -9.3274  -27.0448 C   0  0  0  0  0  0  0  0  0  0  0  0
    6.6918  -10.2628  -27.8014 C   0  0  0  0  0  0  0  0  0  0  0  0
    7.0063   -8.1715  -26.0808 C   0  0  0  0  0  0  0  0  0  0  0  0
    6.3810   -7.2924  -25.1267 C   0  0  0  0  0  0  0  0  0  0  0  0
    6.9070   -7.1893  -23.7899 C   0  0  0  0  0  0  0  0  0  0  0  0
    8.2214   -8.9907  -25.6769 C   0  0  0  0  0  0  0  0  0  0  0  0
    8.7018   -8.8965  -24.4557 N   0  0  0  0  0  0  0  0  0  0  0  0
    8.1070   -8.0601  -23.5482 O   0  0  0  0  0  0  0  0  0  0  0  0
    8.8811   -9.9187  -26.6838 C   0  0  0  0  0  0  0  0  0  0  0  0
    7.8754  -10.9588  -27.1493 C   0  0  0  0  0  0  0  0  0  0  0  0
    8.4723   -7.9886  -22.6200 H   0  0  0  0  0  0  0  0  0  0  0  0
    8.6071   -3.3659  -23.6200 C   0  0  0  0  0  0  0  0  0  0  0  0
    8.9793   -4.5962  -22.8087 C   0  0  0  0  0  0  0  0  0  0  0  0
    6.0544   -3.4789  -18.5532 C   0  0  0  0  0  0  0  0  0  0  0  0
    7.3776   -4.1464  -18.8909 C   0  0  0  0  0  0  0  0  0  0  0  0
    7.6733   -3.9539  -20.3179 N   0  0  0  0  0  0  0  0  0  0  0  0
    8.8962   -3.2478  -20.7263 C   0  0  0  0  0  0  0  0  0  0  0  0
    9.7562   -4.1721  -21.5729 C   0  0  0  0  0  0  0  0  0  0  0  0
    3.6087   -3.3925  -23.0284 C   0  0  0  0  0  0  0  0  0  0  0  0
    0.8155   -1.5245  -21.4098 C   0  0  0  0  0  0  0  0  0  0  0  0
    1.1127   -1.7325  -20.0160 C   0  0  0  0  0  0  0  0  0  0  0  0
    2.2261   -2.4830  -19.6459 N   0  0  0  0  0  0  0  0  0  0  0  0
    3.0520   -3.0324  -20.6237 C   0  0  0  0  0  0  0  0  0  0  0  0
    2.7548   -2.8244  -22.0174 C   0  0  0  0  0  0  0  0  0  0  0  0
 18 19  1  0  0  0
 19 20  1  0  0  0
 20 21  1  0  0  0
 21 22  1  0  0  0
 22 23  1  0  0  0
 23 24  1  0  0  0
 19 24  1  0  0  0
 22  1  1  0  0  0
  1  2  1  0  0  0
  2  3  2  0  0  0
  3  4  1  0  0  0
  4  5  2  0  0  0
  1  5  1  0  0  0
  4 25  1  0  0  0
 25 26  2  0  0  0
 26 27  1  0  0  0
 27 28  2  0  0  0
 28 29  1  0  0  0
 29 30  2  0  0  0
 25 30  1  0  0  0
  3  6  1  0  0  0
  6  7  2  0  0  0
  7  8  1  0  0  0
  8  9  2  0  0  0
  9 10  1  0  0  0
 10 11  2  0  0  0
  6 11  1  0  0  0
  9 12  1  0  0  0
 12 13  2  0  0  0
 13 14  1  0  0  0
 12 15  1  0  0  0
 15 16  1  0  0  0
  8 16  1  0  0  0
 14 17  1  0  0  0
M  END
> <minimizedAffinity>
-7.26515

$$$$
mol_74627710_15


 30 34  0  0  0  0  0  0  0  0999 V2000
    6.0557   -5.3136  -23.6775 N   0  0  0  0  0  0  0  0  0  0  0  0
    2.9922   -3.4577  -25.9214 C   0  0  0  0  0  0  0  0  0  0  0  0
    4.0551   -4.0749  -25.1705 C   0  0  0  0  0  0  0  0  0  0  0  0
    3.7495   -5.0671  -24.1723 C   0  0  0  0  0  0  0  0  0  0  0  0
    4.7774   -5.6639  -23.4463 N   0  0  0  0  0  0  0  0  0  0  0  0
    5.4992   -3.6791  -25.4317 C   0  0  0  0  0  0  0  0  0  0  0  0
    5.8246   -6.8121  -29.5601 C   0  0  0  0  0  0  0  0  0  0  0  0
    6.6595   -7.0258  -30.7139 C   0  0  0  0  0  0  0  0  0  0  0  0
    5.9981   -5.0553  -28.9497 C   0  0  0  0  0  0  0  0  0  0  0  0
    5.3757   -4.7216  -27.6946 C   0  0  0  0  0  0  0  0  0  0  0  0
    6.1217   -4.0129  -26.6868 C   0  0  0  0  0  0  0  0  0  0  0  0
    7.4423   -4.6595  -29.2109 C   0  0  0  0  0  0  0  0  0  0  0  0
    8.1236   -4.0120  -28.2903 N   0  0  0  0  0  0  0  0  0  0  0  0
    7.5316   -3.6946  -27.0964 O   0  0  0  0  0  0  0  0  0  0  0  0
    8.0991   -5.0118  -30.5356 C   0  0  0  0  0  0  0  0  0  0  0  0
    8.0931   -6.5206  -30.7188 C   0  0  0  0  0  0  0  0  0  0  0  0
    8.0496   -3.2025  -26.3967 H   0  0  0  0  0  0  0  0  0  0  0  0
    5.3027   -3.4732  -21.2399 C   0  0  0  0  0  0  0  0  0  0  0  0
    6.5415   -3.2242  -22.0847 C   0  0  0  0  0  0  0  0  0  0  0  0
    7.0441   -8.1352  -23.9667 C   0  0  0  0  0  0  0  0  0  0  0  0
    7.9288   -6.9694  -23.5563 C   0  0  0  0  0  0  0  0  0  0  0  0
    7.1036   -5.9222  -22.9372 N   0  0  0  0  0  0  0  0  0  0  0  0
    7.3632   -5.5050  -21.5518 C   0  0  0  0  0  0  0  0  0  0  0  0
    7.7060   -4.0244  -21.5243 C   0  0  0  0  0  0  0  0  0  0  0  0
    2.3054   -5.4628  -23.9112 C   0  0  0  0  0  0  0  0  0  0  0  0
   -0.6292   -4.2521  -21.9530 C   0  0  0  0  0  0  0  0  0  0  0  0
   -0.0799   -3.0773  -21.3266 C   0  0  0  0  0  0  0  0  0  0  0  0
    1.2433   -2.7147  -21.5659 N   0  0  0  0  0  0  0  0  0  0  0  0
    2.0356   -3.4882  -22.4110 C   0  0  0  0  0  0  0  0  0  0  0  0
    1.4863   -4.6630  -23.0374 C   0  0  0  0  0  0  0  0  0  0  0  0
 18 19  1  0  0  0
 19 20  1  0  0  0
 20 21  1  0  0  0
 21 22  1  0  0  0
 22 23  1  0  0  0
 23 24  1  0  0  0
 19 24  1  0  0  0
 22  1  1  0  0  0
  1  2  1  0  0  0
  2  3  2  0  0  0
  3  4  1  0  0  0
  4  5  2  0  0  0
  1  5  1  0  0  0
  4 25  1  0  0  0
 25 26  2  0  0  0
 26 27  1  0  0  0
 27 28  2  0  0  0
 28 29  1  0  0  0
 29 30  2  0  0  0
 25 30  1  0  0  0
  3  6  1  0  0  0
  6  7  2  0  0  0
  7  8  1  0  0  0
  8  9  2  0  0  0
  9 10  1  0  0  0
 10 11  2  0  0  0
  6 11  1  0  0  0
  9 12  1  0  0  0
 12 13  2  0  0  0
 13 14  1  0  0  0
 12 15  1  0  0  0
 15 16  1  0  0  0
  8 16  1  0  0  0
 14 17  1  0  0  0
M  END
> <minimizedAffinity>
-7.15899

$$$$
mol_87623644_16


 30 34  0  0  0  0  0  0  0  0999 V2000
    6.2794   -5.2652  -23.5038 N   0  0  0  0  0  0  0  0  0  0  0  0
    2.2396   -4.3020  -24.2893 C   0  0  0  0  0  0  0  0  0  0  0  0
    3.6216   -4.6030  -24.0181 C   0  0  0  0  0  0  0  0  0  0  0  0
    4.0782   -5.9688  -24.0366 C   0  0  0  0  0  0  0  0  0  0  0  0
    5.4148   -6.2599  -23.7744 N   0  0  0  0  0  0  0  0  0  0  0  0
    4.5984   -3.4792  -23.7124 C   0  0  0  0  0  0  0  0  0  0  0  0
    2.3248   -2.4690  -19.1545 C   0  0  0  0  0  0  0  0  0  0  0  0
    2.5936   -1.7717  -17.9233 C   0  0  0  0  0  0  0  0  0  0  0  0
    3.9243   -2.9284  -20.0028 C   0  0  0  0  0  0  0  0  0  0  0  0
    3.8405   -3.4670  -21.3360 C   0  0  0  0  0  0  0  0  0  0  0  0
    4.6822   -2.9407  -22.3794 C   0  0  0  0  0  0  0  0  0  0  0  0
    4.9010   -1.8047  -19.6971 C   0  0  0  0  0  0  0  0  0  0  0  0
    5.6699   -1.3239  -20.6503 N   0  0  0  0  0  0  0  0  0  0  0  0
    5.5902   -1.8362  -21.9185 O   0  0  0  0  0  0  0  0  0  0  0  0
    4.9895   -1.2363  -18.2901 C   0  0  0  0  0  0  0  0  0  0  0  0
    3.6383   -0.6682  -17.8874 C   0  0  0  0  0  0  0  0  0  0  0  0
    6.1747   -1.4708  -22.6430 H   0  0  0  0  0  0  0  0  0  0  0  0
    7.0296   -3.9533  -26.2628 C   0  0  0  0  0  0  0  0  0  0  0  0
    7.0439   -5.4591  -26.0566 C   0  0  0  0  0  0  0  0  0  0  0  0
    7.5846   -5.3916  -20.8014 C   0  0  0  0  0  0  0  0  0  0  0  0
    8.0150   -6.2403  -21.9868 C   0  0  0  0  0  0  0  0  0  0  0  0
    7.6421   -5.5619  -23.2364 N   0  0  0  0  0  0  0  0  0  0  0  0
    8.6798   -5.1907  -24.2091 C   0  0  0  0  0  0  0  0  0  0  0  0
    8.4054   -5.8859  -25.5327 C   0  0  0  0  0  0  0  0  0  0  0  0
    3.1016   -7.0926  -24.3423 C   0  0  0  0  0  0  0  0  0  0  0  0
    2.0366   -9.1768  -27.2465 C   0  0  0  0  0  0  0  0  0  0  0  0
    2.8757   -8.6480  -28.2907 C   0  0  0  0  0  0  0  0  0  0  0  0
    3.7707   -7.6182  -28.0106 N   0  0  0  0  0  0  0  0  0  0  0  0
    3.8542   -7.0998  -26.7206 C   0  0  0  0  0  0  0  0  0  0  0  0
    3.0151   -7.6287  -25.6763 C   0  0  0  0  0  0  0  0  0  0  0  0
 18 19  1  0  0  0
 19 20  1  0  0  0
 20 21  1  0  0  0
 21 22  1  0  0  0
 22 23  1  0  0  0
 23 24  1  0  0  0
 19 24  1  0  0  0
 22  1  1  0  0  0
  1  2  1  0  0  0
  2  3  2  0  0  0
  3  4  1  0  0  0
  4  5  2  0  0  0
  1  5  1  0  0  0
  4 25  1  0  0  0
 25 26  2  0  0  0
 26 27  1  0  0  0
 27 28  2  0  0  0
 28 29  1  0  0  0
 29 30  2  0  0  0
 25 30  1  0  0  0
  3  6  1  0  0  0
  6  7  2  0  0  0
  7  8  1  0  0  0
  8  9  2  0  0  0
  9 10  1  0  0  0
 10 11  2  0  0  0
  6 11  1  0  0  0
  9 12  1  0  0  0
 12 13  2  0  0  0
 13 14  1  0  0  0
 12 15  1  0  0  0
 15 16  1  0  0  0
  8 16  1  0  0  0
 14 17  1  0  0  0
M  END
> <minimizedAffinity>
-7.91433

$$$$
mol_87623644_16


 30 34  0  0  0  0  0  0  0  0999 V2000
    4.5483   -5.7194  -24.3746 N   0  0  0  0  0  0  0  0  0  0  0  0
    8.6922   -4.8961  -24.2512 C   0  0  0  0  0  0  0  0  0  0  0  0
    7.2812   -5.1759  -24.3212 C   0  0  0  0  0  0  0  0  0  0  0  0
    6.5208   -5.3507  -23.1106 C   0  0  0  0  0  0  0  0  0  0  0  0
    5.1562   -5.6214  -23.1783 N   0  0  0  0  0  0  0  0  0  0  0  0
    6.5945   -5.2867  -25.6727 C   0  0  0  0  0  0  0  0  0  0  0  0
    8.3810  -10.1059  -26.4133 C   0  0  0  0  0  0  0  0  0  0  0  0
    8.1294  -11.2553  -27.2438 C   0  0  0  0  0  0  0  0  0  0  0  0
    6.8543   -9.0348  -26.3074 C   0  0  0  0  0  0  0  0  0  0  0  0
    6.9846   -7.7504  -25.6690 C   0  0  0  0  0  0  0  0  0  0  0  0
    6.4642   -6.5710  -26.3111 C   0  0  0  0  0  0  0  0  0  0  0  0
    6.1676   -9.1456  -27.6588 C   0  0  0  0  0  0  0  0  0  0  0  0
    5.6922   -8.0682  -28.2455 N   0  0  0  0  0  0  0  0  0  0  0  0
    5.8161   -6.8464  -27.6381 O   0  0  0  0  0  0  0  0  0  0  0  0
    6.0301  -10.5012  -28.3327 C   0  0  0  0  0  0  0  0  0  0  0  0
    7.4108  -11.0899  -28.5729 C   0  0  0  0  0  0  0  0  0  0  0  0
    5.4547   -6.0275  -28.0840 H   0  0  0  0  0  0  0  0  0  0  0  0
    4.0896   -2.7747  -25.3819 C   0  0  0  0  0  0  0  0  0  0  0  0
    3.7307   -3.2081  -23.9700 C   0  0  0  0  0  0  0  0  0  0  0  0
    3.2801   -8.3764  -24.9698 C   0  0  0  0  0  0  0  0  0  0  0  0
    2.6520   -7.3243  -24.0702 C   0  0  0  0  0  0  0  0  0  0  0  0
    3.1571   -5.9954  -24.4437 N   0  0  0  0  0  0  0  0  0  0  0  0
    2.2220   -4.9521  -24.8886 C   0  0  0  0  0  0  0  0  0  0  0  0
    2.3135   -3.7573  -23.9533 C   0  0  0  0  0  0  0  0  0  0  0  0
    7.2075   -5.2400  -21.7592 C   0  0  0  0  0  0  0  0  0  0  0  0
    7.4862   -2.8136  -18.9401 C   0  0  0  0  0  0  0  0  0  0  0  0
    6.6573   -1.7368  -19.4171 C   0  0  0  0  0  0  0  0  0  0  0  0
    6.0282   -1.8383  -20.6556 N   0  0  0  0  0  0  0  0  0  0  0  0
    6.2005   -2.9812  -21.4327 C   0  0  0  0  0  0  0  0  0  0  0  0
    7.0293   -4.0581  -20.9556 C   0  0  0  0  0  0  0  0  0  0  0  0
 18 19  1  0  0  0
 19 20  1  0  0  0
 20 21  1  0  0  0
 21 22  1  0  0  0
 22 23  1  0  0  0
 23 24  1  0  0  0
 19 24  1  0  0  0
 22  1  1  0  0  0
  1  2  1  0  0  0
  2  3  2  0  0  0
  3  4  1  0  0  0
  4  5  2  0  0  0
  1  5  1  0  0  0
  4 25  1  0  0  0
 25 26  2  0  0  0
 26 27  1  0  0  0
 27 28  2  0  0  0
 28 29  1  0  0  0
 29 30  2  0  0  0
 25 30  1  0  0  0
  3  6  1  0  0  0
  6  7  2  0  0  0
  7  8  1  0  0  0
  8  9  2  0  0  0
  9 10  1  0  0  0
 10 11  2  0  0  0
  6 11  1  0  0  0
  9 12  1  0  0  0
 12 13  2  0  0  0
 13 14  1  0  0  0
 12 15  1  0  0  0
 15 16  1  0  0  0
  8 16  1  0  0  0
 14 17  1  0  0  0
M  END
> <minimizedAffinity>
-7.40096

$$$$
mol_87623644_16


 30 34  0  0  0  0  0  0  0  0999 V2000
    6.4901   -5.7677  -24.1004 N   0  0  0  0  0  0  0  0  0  0  0  0
    2.4332   -6.0532  -25.2512 C   0  0  0  0  0  0  0  0  0  0  0  0
    3.8111   -5.9295  -24.8512 C   0  0  0  0  0  0  0  0  0  0  0  0
    4.7073   -7.0471  -25.0000 C   0  0  0  0  0  0  0  0  0  0  0  0
    6.0400   -6.9274  -24.6131 N   0  0  0  0  0  0  0  0  0  0  0  0
    4.3197   -4.6194  -24.2720 C   0  0  0  0  0  0  0  0  0  0  0  0
   -0.3368   -3.4522  -22.2921 C   0  0  0  0  0  0  0  0  0  0  0  0
   -0.9278   -2.5653  -21.3235 C   0  0  0  0  0  0  0  0  0  0  0  0
    1.4704   -3.7241  -21.9057 C   0  0  0  0  0  0  0  0  0  0  0  0
    2.2596   -4.4363  -22.8775 C   0  0  0  0  0  0  0  0  0  0  0  0
    3.5305   -3.9072  -23.3003 C   0  0  0  0  0  0  0  0  0  0  0  0
    1.9789   -2.4141  -21.3265 C   0  0  0  0  0  0  0  0  0  0  0  0
    3.1400   -1.9307  -21.7128 N   0  0  0  0  0  0  0  0  0  0  0  0
    3.8907   -2.6082  -22.6372 O   0  0  0  0  0  0  0  0  0  0  0  0
    1.1460   -1.6623  -20.3010 C   0  0  0  0  0  0  0  0  0  0  0  0
   -0.1984   -1.2976  -20.9093 C   0  0  0  0  0  0  0  0  0  0  0  0
    4.7732   -2.2408  -22.9308 H   0  0  0  0  0  0  0  0  0  0  0  0
    6.9432   -3.8203  -26.5291 C   0  0  0  0  0  0  0  0  0  0  0  0
    7.4577   -5.2506  -26.5367 C   0  0  0  0  0  0  0  0  0  0  0  0
    7.5601   -5.9335  -21.2987 C   0  0  0  0  0  0  0  0  0  0  0  0
    8.3400   -6.3734  -22.5270 C   0  0  0  0  0  0  0  0  0  0  0  0
    7.8488   -5.6457  -23.7060 N   0  0  0  0  0  0  0  0  0  0  0  0
    8.7640   -4.7917  -24.4766 C   0  0  0  0  0  0  0  0  0  0  0  0
    8.8413   -5.2947  -25.9089 C   0  0  0  0  0  0  0  0  0  0  0  0
    4.1989   -8.3571  -25.5792 C   0  0  0  0  0  0  0  0  0  0  0  0
    3.9876  -10.0735  -28.8840 C   0  0  0  0  0  0  0  0  0  0  0  0
    4.5990   -9.0944  -29.7453 C   0  0  0  0  0  0  0  0  0  0  0  0
    5.0648   -7.8939  -29.2145 N   0  0  0  0  0  0  0  0  0  0  0  0
    4.9396   -7.6403  -27.8508 C   0  0  0  0  0  0  0  0  0  0  0  0
    4.3283   -8.6194  -26.9894 C   0  0  0  0  0  0  0  0  0  0  0  0
 18 19  1  0  0  0
 19 20  1  0  0  0
 20 21  1  0  0  0
 21 22  1  0  0  0
 22 23  1  0  0  0
 23 24  1  0  0  0
 19 24  1  0  0  0
 22  1  1  0  0  0
  1  2  1  0  0  0
  2  3  2  0  0  0
  3  4  1  0  0  0
  4  5  2  0  0  0
  1  5  1  0  0  0
  4 25  1  0  0  0
 25 26  2  0  0  0
 26 27  1  0  0  0
 27 28  2  0  0  0
 28 29  1  0  0  0
 29 30  2  0  0  0
 25 30  1  0  0  0
  3  6  1  0  0  0
  6  7  2  0  0  0
  7  8  1  0  0  0
  8  9  2  0  0  0
  9 10  1  0  0  0
 10 11  2  0  0  0
  6 11  1  0  0  0
  9 12  1  0  0  0
 12 13  2  0  0  0
 13 14  1  0  0  0
 12 15  1  0  0  0
 15 16  1  0  0  0
  8 16  1  0  0  0
 14 17  1  0  0  0
M  END
> <minimizedAffinity>
-7.36010

$$$$
mol_87623644_16


 30 34  0  0  0  0  0  0  0  0999 V2000
    6.1430   -5.0846  -24.7698 N   0  0  0  0  0  0  0  0  0  0  0  0
    2.3913   -6.6599  -23.6262 C   0  0  0  0  0  0  0  0  0  0  0  0
    3.6789   -6.1491  -24.0202 C   0  0  0  0  0  0  0  0  0  0  0  0
    3.9182   -4.7290  -24.0293 C   0  0  0  0  0  0  0  0  0  0  0  0
    5.1636   -4.2350  -24.4104 N   0  0  0  0  0  0  0  0  0  0  0  0
    4.7855   -7.1090  -24.4262 C   0  0  0  0  0  0  0  0  0  0  0  0
    2.0874   -8.8057  -28.5258 C   0  0  0  0  0  0  0  0  0  0  0  0
    2.2936   -9.5309  -29.7529 C   0  0  0  0  0  0  0  0  0  0  0  0
    3.6856   -8.0230  -27.9581 C   0  0  0  0  0  0  0  0  0  0  0  0
    3.7028   -7.4152  -26.6525 C   0  0  0  0  0  0  0  0  0  0  0  0
    4.7683   -7.7167  -25.7317 C   0  0  0  0  0  0  0  0  0  0  0  0
    4.7920   -8.9827  -28.3642 C   0  0  0  0  0  0  0  0  0  0  0  0
    5.7655   -9.2583  -27.5230 N   0  0  0  0  0  0  0  0  0  0  0  0
    5.7818   -8.6800  -26.2811 O   0  0  0  0  0  0  0  0  0  0  0  0
    4.7740   -9.6243  -29.7421 C   0  0  0  0  0  0  0  0  0  0  0  0
    3.5019  -10.4405  -29.9042 C   0  0  0  0  0  0  0  0  0  0  0  0
    6.5217   -8.8895  -25.6417 H   0  0  0  0  0  0  0  0  0  0  0  0
    7.3951   -6.5168  -22.2644 C   0  0  0  0  0  0  0  0  0  0  0  0
    7.1934   -5.0111  -22.3142 C   0  0  0  0  0  0  0  0  0  0  0  0
    7.0698   -4.5443  -27.5754 C   0  0  0  0  0  0  0  0  0  0  0  0
    7.5362   -3.7513  -26.3653 C   0  0  0  0  0  0  0  0  0  0  0  0
    7.4127   -4.5811  -25.1583 N   0  0  0  0  0  0  0  0  0  0  0  0
    8.6034   -4.8896  -24.3534 C   0  0  0  0  0  0  0  0  0  0  0  0
    8.4131   -4.3570  -22.9425 C   0  0  0  0  0  0  0  0  0  0  0  0
    2.8119   -3.7692  -23.6233 C   0  0  0  0  0  0  0  0  0  0  0  0
    1.8814   -1.6215  -20.7192 C   0  0  0  0  0  0  0  0  0  0  0  0
    2.9723   -1.8862  -19.8168 C   0  0  0  0  0  0  0  0  0  0  0  0
    3.9861   -2.7658  -20.1890 N   0  0  0  0  0  0  0  0  0  0  0  0
    3.9450   -3.3892  -21.4337 C   0  0  0  0  0  0  0  0  0  0  0  0
    2.8542   -3.1244  -22.3361 C   0  0  0  0  0  0  0  0  0  0  0  0
 18 19  1  0  0  0
 19 20  1  0  0  0
 20 21  1  0  0  0
 21 22  1  0  0  0
 22 23  1  0  0  0
 23 24  1  0  0  0
 19 24  1  0  0  0
 22  1  1  0  0  0
  1  2  1  0  0  0
  2  3  2  0  0  0
  3  4  1  0  0  0
  4  5  2  0  0  0
  1  5  1  0  0  0
  4 25  1  0  0  0
 25 26  2  0  0  0
 26 27  1  0  0  0
 27 28  2  0  0  0
 28 29  1  0  0  0
 29 30  2  0  0  0
 25 30  1  0  0  0
  3  6  1  0  0  0
  6  7  2  0  0  0
  7  8  1  0  0  0
  8  9  2  0  0  0
  9 10  1  0  0  0
 10 11  2  0  0  0
  6 11  1  0  0  0
  9 12  1  0  0  0
 12 13  2  0  0  0
 13 14  1  0  0  0
 12 15  1  0  0  0
 15 16  1  0  0  0
  8 16  1  0  0  0
 14 17  1  0  0  0
M  END
> <minimizedAffinity>
-7.17490

$$$$
mol_87623644_16


 30 34  0  0  0  0  0  0  0  0999 V2000
    6.3020   -4.9797  -23.4467 N   0  0  0  0  0  0  0  0  0  0  0  0
    2.3176   -6.2779  -23.9981 C   0  0  0  0  0  0  0  0  0  0  0  0
    3.6842   -5.8610  -23.8176 C   0  0  0  0  0  0  0  0  0  0  0  0
    3.9768   -4.5158  -23.3945 C   0  0  0  0  0  0  0  0  0  0  0  0
    5.2985   -4.1125  -23.2200 N   0  0  0  0  0  0  0  0  0  0  0  0
    4.8178   -6.8407  -24.0737 C   0  0  0  0  0  0  0  0  0  0  0  0
    2.4934   -8.7364  -28.3126 C   0  0  0  0  0  0  0  0  0  0  0  0
    2.8060   -9.5219  -29.4786 C   0  0  0  0  0  0  0  0  0  0  0  0
    4.0377   -7.9279  -27.6414 C   0  0  0  0  0  0  0  0  0  0  0  0
    3.9397   -7.2561  -26.3713 C   0  0  0  0  0  0  0  0  0  0  0  0
    4.9158   -7.5125  -25.3438 C   0  0  0  0  0  0  0  0  0  0  0  0
    5.1713   -8.9075  -27.8976 C   0  0  0  0  0  0  0  0  0  0  0  0
    6.0630   -9.1418  -26.9590 N   0  0  0  0  0  0  0  0  0  0  0  0
    5.9697   -8.5027  -25.7507 O   0  0  0  0  0  0  0  0  0  0  0  0
    5.2747   -9.6166  -29.2381 C   0  0  0  0  0  0  0  0  0  0  0  0
    4.0183  -10.4388  -29.4746 C   0  0  0  0  0  0  0  0  0  0  0  0
    6.6475   -8.6808  -25.0373 H   0  0  0  0  0  0  0  0  0  0  0  0
    6.2254   -3.7342  -26.3345 C   0  0  0  0  0  0  0  0  0  0  0  0
    6.9670   -5.0265  -26.0341 C   0  0  0  0  0  0  0  0  0  0  0  0
    7.6114   -4.2185  -20.8528 C   0  0  0  0  0  0  0  0  0  0  0  0
    8.3495   -4.8688  -22.0117 C   0  0  0  0  0  0  0  0  0  0  0  0
    7.6495   -4.5687  -23.2689 N   0  0  0  0  0  0  0  0  0  0  0  0
    8.3444   -3.8431  -24.3420 C   0  0  0  0  0  0  0  0  0  0  0  0
    8.3857   -4.7059  -25.5927 C   0  0  0  0  0  0  0  0  0  0  0  0
    2.8433   -3.5361  -23.1384 C   0  0  0  0  0  0  0  0  0  0  0  0
    1.5440   -1.4056  -20.3663 C   0  0  0  0  0  0  0  0  0  0  0  0
    2.4856   -1.7071  -19.3191 C   0  0  0  0  0  0  0  0  0  0  0  0
    3.5242   -2.6049  -19.5538 N   0  0  0  0  0  0  0  0  0  0  0  0
    3.6523   -3.2110  -20.8012 C   0  0  0  0  0  0  0  0  0  0  0  0
    2.7108   -2.9094  -21.8484 C   0  0  0  0  0  0  0  0  0  0  0  0
 18 19  1  0  0  0
 19 20  1  0  0  0
 20 21  1  0  0  0
 21 22  1  0  0  0
 22 23  1  0  0  0
 23 24  1  0  0  0
 19 24  1  0  0  0
 22  1  1  0  0  0
  1  2  1  0  0  0
  2  3  2  0  0  0
  3  4  1  0  0  0
  4  5  2  0  0  0
  1  5  1  0  0  0
  4 25  1  0  0  0
 25 26  2  0  0  0
 26 27  1  0  0  0
 27 28  2  0  0  0
 28 29  1  0  0  0
 29 30  2  0  0  0
 25 30  1  0  0  0
  3  6  1  0  0  0
  6  7  2  0  0  0
  7  8  1  0  0  0
  8  9  2  0  0  0
  9 10  1  0  0  0
 10 11  2  0  0  0
  6 11  1  0  0  0
  9 12  1  0  0  0
 12 13  2  0  0  0
 13 14  1  0  0  0
 12 15  1  0  0  0
 15 16  1  0  0  0
  8 16  1  0  0  0
 14 17  1  0  0  0
M  END
> <minimizedAffinity>
-7.01034

$$$$
