mol_11531192_0


 30 34  0  0  0  0  0  0  0  0999 V2000
   -1.0159   -2.6088    8.4503 N   0  0  0  0  0  0  0  0  0  0  0  0
   -2.3202   -2.3507    8.0354 C   0  0  0  0  0  0  0  0  0  0  0  0
   -2.9139   -3.1442    6.9905 C   0  0  0  0  0  0  0  0  0  0  0  0
   -2.1587   -4.2047    6.3744 C   0  0  0  0  0  0  0  0  0  0  0  0
   -0.3105   -3.5994    7.8748 N   0  0  0  0  0  0  0  0  0  0  0  0
   -4.3373   -2.8626    6.5378 C   0  0  0  0  0  0  0  0  0  0  0  0
   -4.7235   -1.5261    6.1657 C   0  0  0  0  0  0  0  0  0  0  0  0
   -6.0722   -1.2593    5.7368 C   0  0  0  0  0  0  0  0  0  0  0  0
   -6.4584    0.0773    5.3645 C   0  0  0  0  0  0  0  0  0  0  0  0
   -5.4959    1.1471    5.4213 C   0  0  0  0  0  0  0  0  0  0  0  0
   -5.2998   -3.9325    6.4811 C   0  0  0  0  0  0  0  0  0  0  0  0
   -7.8819    0.3589    4.9118 C   0  0  0  0  0  0  0  0  0  0  0  0
   -8.7612   -0.6184    4.8600 N   0  0  0  0  0  0  0  0  0  0  0  0
   -8.3938   -1.8899    5.2141 O   0  0  0  0  0  0  0  0  0  0  0  0
   -8.2895    1.7695    4.5190 C   0  0  0  0  0  0  0  0  0  0  0  0
   -7.0880   -2.3884    5.6769 C   0  0  0  0  0  0  0  0  0  0  0  0
   -9.0199   -2.5859    5.1772 H   0  0  0  0  0  0  0  0  0  0  0  0
    3.0558   -0.5610   12.7187 C   0  0  0  0  0  0  0  0  0  0  0  0
    2.6635   -1.5491   11.6323 C   0  0  0  0  0  0  0  0  0  0  0  0
    1.2900   -1.1877   11.0908 C   0  0  0  0  0  0  0  0  0  0  0  0
    0.8978   -2.1758   10.0044 C   0  0  0  0  0  0  0  0  0  0  0  0
   -0.4305   -1.8263    9.4806 N   0  0  0  0  0  0  0  0  0  0  0  0
   -1.1530   -0.6669   10.0235 C   0  0  0  0  0  0  0  0  0  0  0  0
    2.6256   -2.9529   12.2139 C   0  0  0  0  0  0  0  0  0  0  0  0
   -0.7353   -4.4863    6.8271 C   0  0  0  0  0  0  0  0  0  0  0  0
    0.3737   -3.8884    6.1294 C   0  0  0  0  0  0  0  0  0  0  0  0
    1.7225   -4.1552    6.5582 C   0  0  0  0  0  0  0  0  0  0  0  0
    2.7951   -3.5771    5.8835 N   0  0  0  0  0  0  0  0  0  0  0  0
    4.0994   -3.8351    6.2983 C   0  0  0  0  0  0  0  0  0  0  0  0
   -0.4957   -5.3509    7.9536 C   0  0  0  0  0  0  0  0  0  0  0  0
 18 19  1  0  0  0
 19 20  1  0  0  0
 20 21  1  0  0  0
 21 22  1  0  0  0
 22 23  1  0  0  0
 23 24  1  0  0  0
 19 24  1  0  0  0
 22  1  1  0  0  0
  1  2  1  0  0  0
  2  3  2  0  0  0
  3  4  1  0  0  0
  4  5  2  0  0  0
  1  5  1  0  0  0
  4 25  1  0  0  0
 25 26  2  0  0  0
 26 27  1  0  0  0
 27 28  2  0  0  0
 28 29  1  0  0  0
 29 30  2  0  0  0
 25 30  1  0  0  0
  3  6  1  0  0  0
  6  7  2  0  0  0
  7  8  1  0  0  0
  8  9  2  0  0  0
  9 10  1  0  0  0
 10 11  2  0  0  0
  6 11  1  0  0  0
  9 12  1  0  0  0
 12 13  2  0  0  0
 13 14  1  0  0  0
 12 15  1  0  0  0
 15 16  1  0  0  0
  8 16  1  0  0  0
 14 17  1  0  0  0
M  END
> <minimizedAffinity>
-9.89001

$$$$
mol_11531192_0


 30 34  0  0  0  0  0  0  0  0999 V2000
   -0.7833   -2.8694    8.3412 N   0  0  0  0  0  0  0  0  0  0  0  0
   -2.1174   -2.6511    8.0057 C   0  0  0  0  0  0  0  0  0  0  0  0
   -2.6534   -3.2029    6.7882 C   0  0  0  0  0  0  0  0  0  0  0  0
   -1.8097   -3.9805    5.9175 C   0  0  0  0  0  0  0  0  0  0  0  0
    0.0048   -3.5958    7.5278 N   0  0  0  0  0  0  0  0  0  0  0  0
   -4.1092   -2.9648    6.4221 C   0  0  0  0  0  0  0  0  0  0  0  0
   -4.5594   -1.6390    6.0852 C   0  0  0  0  0  0  0  0  0  0  0  0
   -5.9389   -1.4133    5.7383 C   0  0  0  0  0  0  0  0  0  0  0  0
   -6.3892   -0.0875    5.4013 C   0  0  0  0  0  0  0  0  0  0  0  0
   -5.4598    1.0128    5.4112 C   0  0  0  0  0  0  0  0  0  0  0  0
   -5.0384   -4.0651    6.4122 C   0  0  0  0  0  0  0  0  0  0  0  0
   -7.8451    0.1506    5.0352 C   0  0  0  0  0  0  0  0  0  0  0  0
   -8.6940   -0.8544    5.0261 N   0  0  0  0  0  0  0  0  0  0  0  0
   -8.2657   -2.1157    5.3467 O   0  0  0  0  0  0  0  0  0  0  0  0
   -8.3203    1.5499    4.6795 C   0  0  0  0  0  0  0  0  0  0  0  0
   -6.9196   -2.5746    5.7278 C   0  0  0  0  0  0  0  0  0  0  0  0
   -8.8702   -2.8316    5.3402 H   0  0  0  0  0  0  0  0  0  0  0  0
    0.2910    1.0680   13.0671 C   0  0  0  0  0  0  0  0  0  0  0  0
   -0.4185    0.7240   11.7676 C   0  0  0  0  0  0  0  0  0  0  0  0
    0.0254   -0.6512   11.2966 C   0  0  0  0  0  0  0  0  0  0  0  0
   -0.6841   -0.9952    9.9972 C   0  0  0  0  0  0  0  0  0  0  0  0
   -0.2548   -2.3252    9.5416 N   0  0  0  0  0  0  0  0  0  0  0  0
    0.7217   -3.0920   10.3287 C   0  0  0  0  0  0  0  0  0  0  0  0
   -0.0693    1.7588   10.7105 C   0  0  0  0  0  0  0  0  0  0  0  0
   -0.3539   -4.2187    6.2837 C   0  0  0  0  0  0  0  0  0  0  0  0
   -0.0097   -5.2375    7.2416 C   0  0  0  0  0  0  0  0  0  0  0  0
    1.3697   -5.4632    7.5886 C   0  0  0  0  0  0  0  0  0  0  0  0
    1.7026   -6.4485    8.5151 N   0  0  0  0  0  0  0  0  0  0  0  0
    3.0367   -6.6667    8.8505 C   0  0  0  0  0  0  0  0  0  0  0  0
    0.6813   -3.4255    5.6727 C   0  0  0  0  0  0  0  0  0  0  0  0
 18 19  1  0  0  0
 19 20  1  0  0  0
 20 21  1  0  0  0
 21 22  1  0  0  0
 22 23  1  0  0  0
 23 24  1  0  0  0
 19 24  1  0  0  0
 22  1  1  0  0  0
  1  2  1  0  0  0
  2  3  2  0  0  0
  3  4  1  0  0  0
  4  5  2  0  0  0
  1  5  1  0  0  0
  4 25  1  0  0  0
 25 26  2  0  0  0
 26 27  1  0  0  0
 27 28  2  0  0  0
 28 29  1  0  0  0
 29 30  2  0  0  0
 25 30  1  0  0  0
  3  6  1  0  0  0
  6  7  2  0  0  0
  7  8  1  0  0  0
  8  9  2  0  0  0
  9 10  1  0  0  0
 10 11  2  0  0  0
  6 11  1  0  0  0
  9 12  1  0  0  0
 12 13  2  0  0  0
 13 14  1  0  0  0
 12 15  1  0  0  0
 15 16  1  0  0  0
  8 16  1  0  0  0
 14 17  1  0  0  0
M  END
> <minimizedAffinity>
-9.59702

$$$$
mol_11531192_0


 30 34  0  0  0  0  0  0  0  0999 V2000
    2.1791   -2.8677   10.5044 N   0  0  0  0  0  0  0  0  0  0  0  0
    1.0762   -2.3919    9.7992 C   0  0  0  0  0  0  0  0  0  0  0  0
    0.1599   -1.4760   10.4280 C   0  0  0  0  0  0  0  0  0  0  0  0
    0.3839   -1.0520   11.7861 C   0  0  0  0  0  0  0  0  0  0  0  0
    2.3884   -2.4716   11.7731 N   0  0  0  0  0  0  0  0  0  0  0  0
   -1.0437   -0.9567    9.6584 C   0  0  0  0  0  0  0  0  0  0  0  0
   -1.7687   -1.8352    8.7772 C   0  0  0  0  0  0  0  0  0  0  0  0
   -2.9091   -1.3431    8.0480 C   0  0  0  0  0  0  0  0  0  0  0  0
   -3.6342   -2.2217    7.1668 C   0  0  0  0  0  0  0  0  0  0  0  0
   -3.2188   -3.5923    7.0148 C   0  0  0  0  0  0  0  0  0  0  0  0
   -1.4589    0.4139    9.8106 C   0  0  0  0  0  0  0  0  0  0  0  0
   -4.8377   -1.7024    6.3973 C   0  0  0  0  0  0  0  0  0  0  0  0
   -5.2171   -0.4503    6.5362 N   0  0  0  0  0  0  0  0  0  0  0  0
   -4.5273    0.3855    7.3745 O   0  0  0  0  0  0  0  0  0  0  0  0
   -5.6030   -2.6296    5.4672 C   0  0  0  0  0  0  0  0  0  0  0  0
   -3.3473    0.1034    8.2086 C   0  0  0  0  0  0  0  0  0  0  0  0
   -4.7975    1.2772    7.4735 H   0  0  0  0  0  0  0  0  0  0  0  0
    4.4451   -7.9956    7.7547 C   0  0  0  0  0  0  0  0  0  0  0  0
    3.2906   -7.2327    8.3837 C   0  0  0  0  0  0  0  0  0  0  0  0
    3.7718   -5.8607    8.8269 C   0  0  0  0  0  0  0  0  0  0  0  0
    2.6173   -5.0977    9.4558 C   0  0  0  0  0  0  0  0  0  0  0  0
    3.0826   -3.7709    9.8844 N   0  0  0  0  0  0  0  0  0  0  0  0
    4.4833   -3.3789    9.6714 C   0  0  0  0  0  0  0  0  0  0  0  0
    2.7718   -8.0012    9.5880 C   0  0  0  0  0  0  0  0  0  0  0  0
    1.5874   -1.5713   12.5557 C   0  0  0  0  0  0  0  0  0  0  0  0
    2.8404   -0.8639   12.4955 C   0  0  0  0  0  0  0  0  0  0  0  0
    3.9809   -1.3558   13.2246 C   0  0  0  0  0  0  0  0  0  0  0  0
    5.1927   -0.6717   13.1665 N   0  0  0  0  0  0  0  0  0  0  0  0
    6.2955   -1.1476   13.8716 C   0  0  0  0  0  0  0  0  0  0  0  0
    1.4747   -2.7707   13.3449 C   0  0  0  0  0  0  0  0  0  0  0  0
 18 19  1  0  0  0
 19 20  1  0  0  0
 20 21  1  0  0  0
 21 22  1  0  0  0
 22 23  1  0  0  0
 23 24  1  0  0  0
 19 24  1  0  0  0
 22  1  1  0  0  0
  1  2  1  0  0  0
  2  3  2  0  0  0
  3  4  1  0  0  0
  4  5  2  0  0  0
  1  5  1  0  0  0
  4 25  1  0  0  0
 25 26  2  0  0  0
 26 27  1  0  0  0
 27 28  2  0  0  0
 28 29  1  0  0  0
 29 30  2  0  0  0
 25 30  1  0  0  0
  3  6  1  0  0  0
  6  7  2  0  0  0
  7  8  1  0  0  0
  8  9  2  0  0  0
  9 10  1  0  0  0
 10 11  2  0  0  0
  6 11  1  0  0  0
  9 12  1  0  0  0
 12 13  2  0  0  0
 13 14  1  0  0  0
 12 15  1  0  0  0
 15 16  1  0  0  0
  8 16  1  0  0  0
 14 17  1  0  0  0
M  END
> <minimizedAffinity>
-8.95166

$$$$
mol_11653652_1


 30 34  0  0  0  0  0  0  0  0999 V2000
    1.7924   -4.8159    8.7226 N   0  0  0  0  0  0  0  0  0  0  0  0
    0.0572   -1.2788   10.2532 C   0  0  0  0  0  0  0  0  0  0  0  0
    0.6229   -2.4948    9.7281 C   0  0  0  0  0  0  0  0  0  0  0  0
    2.0521   -2.6368    9.6214 C   0  0  0  0  0  0  0  0  0  0  0  0
    2.5992   -3.8126    9.1136 N   0  0  0  0  0  0  0  0  0  0  0  0
   -0.2885   -3.6282    9.2865 C   0  0  0  0  0  0  0  0  0  0  0  0
   -3.7293   -0.3299    7.2254 C   0  0  0  0  0  0  0  0  0  0  0  0
   -4.8445   -0.3331    6.3141 C   0  0  0  0  0  0  0  0  0  0  0  0
   -2.6141   -1.7908    6.8917 C   0  0  0  0  0  0  0  0  0  0  0  0
   -1.5510   -2.0453    7.8295 C   0  0  0  0  0  0  0  0  0  0  0  0
   -1.3516   -3.3736    8.3488 C   0  0  0  0  0  0  0  0  0  0  0  0
   -3.5255   -2.9242    6.4502 C   0  0  0  0  0  0  0  0  0  0  0  0
   -3.3433   -4.1378    6.9246 N   0  0  0  0  0  0  0  0  0  0  0  0
   -2.3322   -4.3798    7.8165 O   0  0  0  0  0  0  0  0  0  0  0  0
   -4.6475   -2.6556    5.4605 C   0  0  0  0  0  0  0  0  0  0  0  0
   -5.6001   -1.6237    6.0422 C   0  0  0  0  0  0  0  0  0  0  0  0
   -2.1937   -5.3022    8.1771 H   0  0  0  0  0  0  0  0  0  0  0  0
    1.9078   -3.4520    5.8902 C   0  0  0  0  0  0  0  0  0  0  0  0
    0.8755   -4.5143    6.2312 C   0  0  0  0  0  0  0  0  0  0  0  0
    3.5395   -6.7598   10.2028 C   0  0  0  0  0  0  0  0  0  0  0  0
    2.5804   -7.1623    9.0945 C   0  0  0  0  0  0  0  0  0  0  0  0
    2.3501   -6.0149    8.2050 N   0  0  0  0  0  0  0  0  0  0  0  0
    2.6973   -6.1085    6.7796 C   0  0  0  0  0  0  0  0  0  0  0  0
    1.4497   -5.8910    5.9390 C   0  0  0  0  0  0  0  0  0  0  0  0
    2.9636   -1.5033   10.0631 C   0  0  0  0  0  0  0  0  0  0  0  0
    5.2816   -0.6939   12.8708 C   0  0  0  0  0  0  0  0  0  0  0  0
    5.1720   -1.8844   13.6739 C   0  0  0  0  0  0  0  0  0  0  0  0
    4.3369   -2.9230   13.2691 N   0  0  0  0  0  0  0  0  0  0  0  0
    3.6078   -2.8103   12.0877 C   0  0  0  0  0  0  0  0  0  0  0  0
    3.7175   -1.6198   11.2847 C   0  0  0  0  0  0  0  0  0  0  0  0
 18 19  1  0  0  0
 19 20  1  0  0  0
 20 21  1  0  0  0
 21 22  1  0  0  0
 22 23  1  0  0  0
 23 24  1  0  0  0
 19 24  1  0  0  0
 22  1  1  0  0  0
  1  2  1  0  0  0
  2  3  2  0  0  0
  3  4  1  0  0  0
  4  5  2  0  0  0
  1  5  1  0  0  0
  4 25  1  0  0  0
 25 26  2  0  0  0
 26 27  1  0  0  0
 27 28  2  0  0  0
 28 29  1  0  0  0
 29 30  2  0  0  0
 25 30  1  0  0  0
  3  6  1  0  0  0
  6  7  2  0  0  0
  7  8  1  0  0  0
  8  9  2  0  0  0
  9 10  1  0  0  0
 10 11  2  0  0  0
  6 11  1  0  0  0
  9 12  1  0  0  0
 12 13  2  0  0  0
 13 14  1  0  0  0
 12 15  1  0  0  0
 15 16  1  0  0  0
  8 16  1  0  0  0
 14 17  1  0  0  0
M  END
> <minimizedAffinity>
-8.46701

$$$$
mol_11653652_1


 30 34  0  0  0  0  0  0  0  0999 V2000
    1.8367   -2.0440   10.7967 N   0  0  0  0  0  0  0  0  0  0  0  0
   -2.3282   -1.3303   10.7034 C   0  0  0  0  0  0  0  0  0  0  0  0
   -0.9139   -1.6008   10.7314 C   0  0  0  0  0  0  0  0  0  0  0  0
    0.0221   -0.5220   10.9167 C   0  0  0  0  0  0  0  0  0  0  0  0
    1.3898   -0.7835   10.9438 N   0  0  0  0  0  0  0  0  0  0  0  0
   -0.4090   -3.0249   10.5653 C   0  0  0  0  0  0  0  0  0  0  0  0
   -1.5733   -3.0637    5.5048 C   0  0  0  0  0  0  0  0  0  0  0  0
   -1.2758   -3.8184    4.3148 C   0  0  0  0  0  0  0  0  0  0  0  0
   -0.2152   -3.2820    6.7685 C   0  0  0  0  0  0  0  0  0  0  0  0
   -0.4392   -2.7466    8.0866 C   0  0  0  0  0  0  0  0  0  0  0  0
   -0.1850   -3.5603    9.2473 C   0  0  0  0  0  0  0  0  0  0  0  0
    0.2896   -4.7062    6.6025 C   0  0  0  0  0  0  0  0  0  0  0  0
    0.5218   -5.4496    7.6629 N   0  0  0  0  0  0  0  0  0  0  0  0
    0.3087   -4.9402    8.9166 O   0  0  0  0  0  0  0  0  0  0  0  0
    0.5260   -5.2713    5.2114 C   0  0  0  0  0  0  0  0  0  0  0  0
   -0.7761   -5.2495    4.4276 C   0  0  0  0  0  0  0  0  0  0  0  0
    0.4852   -5.5053    9.7225 H   0  0  0  0  0  0  0  0  0  0  0  0
    1.4702   -3.2703   13.6704 C   0  0  0  0  0  0  0  0  0  0  0  0
    2.1089   -1.9085   13.4512 C   0  0  0  0  0  0  0  0  0  0  0  0
    3.5823   -2.6800    8.4366 C   0  0  0  0  0  0  0  0  0  0  0  0
    4.0720   -1.9469    9.6748 C   0  0  0  0  0  0  0  0  0  0  0  0
    3.2312   -2.3108   10.8244 N   0  0  0  0  0  0  0  0  0  0  0  0
    3.8339   -2.9509   12.0025 C   0  0  0  0  0  0  0  0  0  0  0  0
    3.6024   -2.0797   13.2263 C   0  0  0  0  0  0  0  0  0  0  0  0
   -0.4828    0.9021   11.0828 C   0  0  0  0  0  0  0  0  0  0  0  0
   -1.2360    3.3136   13.8267 C   0  0  0  0  0  0  0  0  0  0  0  0
   -0.9051    2.5270   14.9868 C   0  0  0  0  0  0  0  0  0  0  0  0
   -0.4424    1.2222   14.8346 N   0  0  0  0  0  0  0  0  0  0  0  0
   -0.2997    0.6780   13.5604 C   0  0  0  0  0  0  0  0  0  0  0  0
   -0.6305    1.4647   12.4004 C   0  0  0  0  0  0  0  0  0  0  0  0
 18 19  1  0  0  0
 19 20  1  0  0  0
 20 21  1  0  0  0
 21 22  1  0  0  0
 22 23  1  0  0  0
 23 24  1  0  0  0
 19 24  1  0  0  0
 22  1  1  0  0  0
  1  2  1  0  0  0
  2  3  2  0  0  0
  3  4  1  0  0  0
  4  5  2  0  0  0
  1  5  1  0  0  0
  4 25  1  0  0  0
 25 26  2  0  0  0
 26 27  1  0  0  0
 27 28  2  0  0  0
 28 29  1  0  0  0
 29 30  2  0  0  0
 25 30  1  0  0  0
  3  6  1  0  0  0
  6  7  2  0  0  0
  7  8  1  0  0  0
  8  9  2  0  0  0
  9 10  1  0  0  0
 10 11  2  0  0  0
  6 11  1  0  0  0
  9 12  1  0  0  0
 12 13  2  0  0  0
 13 14  1  0  0  0
 12 15  1  0  0  0
 15 16  1  0  0  0
  8 16  1  0  0  0
 14 17  1  0  0  0
M  END
> <minimizedAffinity>
-8.36628

$$$$
mol_11653652_1


 30 34  0  0  0  0  0  0  0  0999 V2000
    2.5410   -3.9157    8.3301 N   0  0  0  0  0  0  0  0  0  0  0  0
    0.5265   -1.7983   11.3834 C   0  0  0  0  0  0  0  0  0  0  0  0
    1.1914   -2.5376   10.3414 C   0  0  0  0  0  0  0  0  0  0  0  0
    2.4911   -2.1221    9.8806 C   0  0  0  0  0  0  0  0  0  0  0  0
    3.1341   -2.8370    8.8730 N   0  0  0  0  0  0  0  0  0  0  0  0
    0.5214   -3.7563    9.7281 C   0  0  0  0  0  0  0  0  0  0  0  0
   -3.4334   -0.9218    7.9140 C   0  0  0  0  0  0  0  0  0  0  0  0
   -4.5066   -1.0182    6.9584 C   0  0  0  0  0  0  0  0  0  0  0  0
   -2.0544   -2.0980    7.4621 C   0  0  0  0  0  0  0  0  0  0  0  0
   -0.9842   -2.2659    8.4112 C   0  0  0  0  0  0  0  0  0  0  0  0
   -0.5489   -3.5884    8.7791 C   0  0  0  0  0  0  0  0  0  0  0  0
   -2.7245   -3.3168    6.8489 C   0  0  0  0  0  0  0  0  0  0  0  0
   -2.3267   -4.5250    7.1850 N   0  0  0  0  0  0  0  0  0  0  0  0
   -1.3088   -4.6847    8.0877 O   0  0  0  0  0  0  0  0  0  0  0  0
   -3.8540   -3.1397    5.8473 C   0  0  0  0  0  0  0  0  0  0  0  0
   -4.9978   -2.3824    6.5021 C   0  0  0  0  0  0  0  0  0  0  0  0
   -1.0064   -5.6030    8.3432 H   0  0  0  0  0  0  0  0  0  0  0  0
    2.8693   -6.3119   10.3417 C   0  0  0  0  0  0  0  0  0  0  0  0
    4.0386   -5.4233    9.9498 C   0  0  0  0  0  0  0  0  0  0  0  0
    2.0363   -3.6915    5.3777 C   0  0  0  0  0  0  0  0  0  0  0  0
    3.3892   -4.0368    5.9783 C   0  0  0  0  0  0  0  0  0  0  0  0
    3.1966   -4.6447    7.3028 N   0  0  0  0  0  0  0  0  0  0  0  0
    3.6825   -6.0073    7.5637 C   0  0  0  0  0  0  0  0  0  0  0  0
    4.6964   -5.9755    8.6957 C   0  0  0  0  0  0  0  0  0  0  0  0
    3.1611   -0.9033   10.4940 C   0  0  0  0  0  0  0  0  0  0  0  0
    5.8673   -0.1170   12.9374 C   0  0  0  0  0  0  0  0  0  0  0  0
    6.2962   -1.4396   13.3125 C   0  0  0  0  0  0  0  0  0  0  0  0
    5.6823   -2.5564   12.7504 N   0  0  0  0  0  0  0  0  0  0  0  0
    4.6536   -2.3939   11.8256 C   0  0  0  0  0  0  0  0  0  0  0  0
    4.2248   -1.0713   11.4504 C   0  0  0  0  0  0  0  0  0  0  0  0
 18 19  1  0  0  0
 19 20  1  0  0  0
 20 21  1  0  0  0
 21 22  1  0  0  0
 22 23  1  0  0  0
 23 24  1  0  0  0
 19 24  1  0  0  0
 22  1  1  0  0  0
  1  2  1  0  0  0
  2  3  2  0  0  0
  3  4  1  0  0  0
  4  5  2  0  0  0
  1  5  1  0  0  0
  4 25  1  0  0  0
 25 26  2  0  0  0
 26 27  1  0  0  0
 27 28  2  0  0  0
 28 29  1  0  0  0
 29 30  2  0  0  0
 25 30  1  0  0  0
  3  6  1  0  0  0
  6  7  2  0  0  0
  7  8  1  0  0  0
  8  9  2  0  0  0
  9 10  1  0  0  0
 10 11  2  0  0  0
  6 11  1  0  0  0
  9 12  1  0  0  0
 12 13  2  0  0  0
 13 14  1  0  0  0
 12 15  1  0  0  0
 15 16  1  0  0  0
  8 16  1  0  0  0
 14 17  1  0  0  0
M  END
> <minimizedAffinity>
-7.87785

$$$$
mol_44587190_2


 30 34  0  0  0  0  0  0  0  0999 V2000
    1.7778   -4.7990    8.6865 N   0  0  0  0  0  0  0  0  0  0  0  0
    0.0889   -1.2471   10.2344 C   0  0  0  0  0  0  0  0  0  0  0  0
    0.6387   -2.4678    9.7036 C   0  0  0  0  0  0  0  0  0  0  0  0
    2.0656   -2.6238    9.5862 C   0  0  0  0  0  0  0  0  0  0  0  0
    2.5972   -3.8042    9.0728 N   0  0  0  0  0  0  0  0  0  0  0  0
   -0.2871   -3.5916    9.2672 C   0  0  0  0  0  0  0  0  0  0  0  0
   -3.7056   -0.2574    7.2270 C   0  0  0  0  0  0  0  0  0  0  0  0
   -4.8262   -0.2488    6.3224 C   0  0  0  0  0  0  0  0  0  0  0  0
   -2.6076   -1.7296    6.8865 C   0  0  0  0  0  0  0  0  0  0  0  0
   -1.5417   -1.9954    7.8179 C   0  0  0  0  0  0  0  0  0  0  0  0
   -1.3530   -3.3258    8.3359 C   0  0  0  0  0  0  0  0  0  0  0  0
   -3.5334   -2.8535    6.4502 C   0  0  0  0  0  0  0  0  0  0  0  0
   -3.3610   -4.0689    6.9234 N   0  0  0  0  0  0  0  0  0  0  0  0
   -2.3471   -4.3216    7.8093 O   0  0  0  0  0  0  0  0  0  0  0  0
   -4.6583   -2.5730    5.4672 C   0  0  0  0  0  0  0  0  0  0  0  0
   -5.5967   -1.5314    6.0548 C   0  0  0  0  0  0  0  0  0  0  0  0
   -2.2160   -5.2455    8.1689 H   0  0  0  0  0  0  0  0  0  0  0  0
    1.8576   -3.4422    5.8495 C   0  0  0  0  0  0  0  0  0  0  0  0
    0.8241   -4.4971    6.2090 C   0  0  0  0  0  0  0  0  0  0  0  0
    3.5354   -6.7505   10.1439 C   0  0  0  0  0  0  0  0  0  0  0  0
    2.5566   -7.1495    9.0516 C   0  0  0  0  0  0  0  0  0  0  0  0
    2.3198   -6.0026    8.1631 N   0  0  0  0  0  0  0  0  0  0  0  0
    2.6440   -6.1017    6.7327 C   0  0  0  0  0  0  0  0  0  0  0  0
    1.3849   -5.8781    5.9111 C   0  0  0  0  0  0  0  0  0  0  0  0
    2.9913   -1.4999   10.0225 C   0  0  0  0  0  0  0  0  0  0  0  0
    5.3606   -0.7295   12.7983 C   0  0  0  0  0  0  0  0  0  0  0  0
    5.2566   -1.9262   13.5928 C   0  0  0  0  0  0  0  0  0  0  0  0
    4.4083   -2.9559   13.1931 N   0  0  0  0  0  0  0  0  0  0  0  0
    3.6605   -2.8284   12.0249 C   0  0  0  0  0  0  0  0  0  0  0  0
    3.7645   -1.6317   11.2304 C   0  0  0  0  0  0  0  0  0  0  0  0
 18 19  1  0  0  0
 19 20  1  0  0  0
 20 21  1  0  0  0
 21 22  1  0  0  0
 22 23  1  0  0  0
 23 24  1  0  0  0
 19 24  1  0  0  0
 22  1  1  0  0  0
  1  2  1  0  0  0
  2  3  2  0  0  0
  3  4  1  0  0  0
  4  5  2  0  0  0
  1  5  1  0  0  0
  4 25  1  0  0  0
 25 26  2  0  0  0
 26 27  1  0  0  0
 27 28  2  0  0  0
 28 29  1  0  0  0
 29 30  2  0  0  0
 25 30  1  0  0  0
  3  6  1  0  0  0
  6  7  2  0  0  0
  7  8  1  0  0  0
  8  9  2  0  0  0
  9 10  1  0  0  0
 10 11  2  0  0  0
  6 11  1  0  0  0
  9 12  1  0  0  0
 12 13  2  0  0  0
 13 14  1  0  0  0
 12 15  1  0  0  0
 15 16  1  0  0  0
  8 16  1  0  0  0
 14 17  1  0  0  0
M  END
> <minimizedAffinity>
-8.47730

$$$$
mol_44587190_2


 30 34  0  0  0  0  0  0  0  0999 V2000
    1.8406   -2.0542   10.7765 N   0  0  0  0  0  0  0  0  0  0  0  0
   -2.3206   -1.3197   10.6782 C   0  0  0  0  0  0  0  0  0  0  0  0
   -0.9077   -1.5973   10.7080 C   0  0  0  0  0  0  0  0  0  0  0  0
    0.0336   -0.5227   10.8912 C   0  0  0  0  0  0  0  0  0  0  0  0
    1.3999   -0.7911   10.9199 N   0  0  0  0  0  0  0  0  0  0  0  0
   -0.4099   -3.0242   10.5460 C   0  0  0  0  0  0  0  0  0  0  0  0
   -1.5506   -3.0629    5.4801 C   0  0  0  0  0  0  0  0  0  0  0  0
   -1.2517   -3.8207    4.2925 C   0  0  0  0  0  0  0  0  0  0  0  0
   -0.1997   -3.2871    6.7505 C   0  0  0  0  0  0  0  0  0  0  0  0
   -0.4269   -2.7488    8.0668 C   0  0  0  0  0  0  0  0  0  0  0  0
   -0.1827   -3.5626    9.2296 C   0  0  0  0  0  0  0  0  0  0  0  0
    0.2981   -4.7142    6.5885 C   0  0  0  0  0  0  0  0  0  0  0  0
    0.5213   -5.4576    7.6508 N   0  0  0  0  0  0  0  0  0  0  0  0
    0.3050   -4.9455    8.9029 O   0  0  0  0  0  0  0  0  0  0  0  0
    0.5379   -5.2823    5.1992 C   0  0  0  0  0  0  0  0  0  0  0  0
   -0.7605   -5.2543    4.4093 C   0  0  0  0  0  0  0  0  0  0  0  0
    0.4747   -5.5105    9.7104 H   0  0  0  0  0  0  0  0  0  0  0  0
    1.4647   -3.2777   13.6501 C   0  0  0  0  0  0  0  0  0  0  0  0
    2.1104   -1.9192   13.4313 C   0  0  0  0  0  0  0  0  0  0  0  0
    3.5857   -2.6995    8.4186 C   0  0  0  0  0  0  0  0  0  0  0  0
    4.0777   -1.9683    9.6571 C   0  0  0  0  0  0  0  0  0  0  0  0
    3.2337   -2.3278   10.8058 N   0  0  0  0  0  0  0  0  0  0  0  0
    3.8319   -2.9705   11.9848 C   0  0  0  0  0  0  0  0  0  0  0  0
    3.6033   -2.0979   13.2082 C   0  0  0  0  0  0  0  0  0  0  0  0
   -0.4643    0.9043   11.0532 C   0  0  0  0  0  0  0  0  0  0  0  0
   -1.2222    3.3217   13.7906 C   0  0  0  0  0  0  0  0  0  0  0  0
   -0.9041    2.5338   14.9534 C   0  0  0  0  0  0  0  0  0  0  0  0
   -0.4481    1.2262   14.8050 N   0  0  0  0  0  0  0  0  0  0  0  0
   -0.2996    0.6806   13.5321 C   0  0  0  0  0  0  0  0  0  0  0  0
   -0.6177    1.4685   12.3693 C   0  0  0  0  0  0  0  0  0  0  0  0
 18 19  1  0  0  0
 19 20  1  0  0  0
 20 21  1  0  0  0
 21 22  1  0  0  0
 22 23  1  0  0  0
 23 24  1  0  0  0
 19 24  1  0  0  0
 22  1  1  0  0  0
  1  2  1  0  0  0
  2  3  2  0  0  0
  3  4  1  0  0  0
  4  5  2  0  0  0
  1  5  1  0  0  0
  4 25  1  0  0  0
 25 26  2  0  0  0
 26 27  1  0  0  0
 27 28  2  0  0  0
 28 29  1  0  0  0
 29 30  2  0  0  0
 25 30  1  0  0  0
  3  6  1  0  0  0
  6  7  2  0  0  0
  7  8  1  0  0  0
  8  9  2  0  0  0
  9 10  1  0  0  0
 10 11  2  0  0  0
  6 11  1  0  0  0
  9 12  1  0  0  0
 12 13  2  0  0  0
 13 14  1  0  0  0
 12 15  1  0  0  0
 15 16  1  0  0  0
  8 16  1  0  0  0
 14 17  1  0  0  0
M  END
> <minimizedAffinity>
-8.38480

$$$$
mol_44587190_2


 30 34  0  0  0  0  0  0  0  0999 V2000
    2.5480   -4.0758    8.2904 N   0  0  0  0  0  0  0  0  0  0  0  0
    0.6668   -2.0343   11.4775 C   0  0  0  0  0  0  0  0  0  0  0  0
    1.2864   -2.7479   10.3907 C   0  0  0  0  0  0  0  0  0  0  0  0
    2.5570   -2.3098    9.8731 C   0  0  0  0  0  0  0  0  0  0  0  0
    3.1561   -2.9999    8.8221 N   0  0  0  0  0  0  0  0  0  0  0  0
    0.5993   -3.9634    9.7901 C   0  0  0  0  0  0  0  0  0  0  0  0
   -3.2940   -1.0872    7.9101 C   0  0  0  0  0  0  0  0  0  0  0  0
   -4.3627   -1.1785    6.9490 C   0  0  0  0  0  0  0  0  0  0  0  0
   -1.9328   -2.2932    7.4840 C   0  0  0  0  0  0  0  0  0  0  0  0
   -0.8717   -2.4661    8.4424 C   0  0  0  0  0  0  0  0  0  0  0  0
   -0.4617   -3.7906    8.8317 C   0  0  0  0  0  0  0  0  0  0  0  0
   -2.6198   -3.5088    6.8834 C   0  0  0  0  0  0  0  0  0  0  0  0
   -2.2452   -4.7188    7.2390 N   0  0  0  0  0  0  0  0  0  0  0  0
   -1.2360   -4.8832    8.1506 O   0  0  0  0  0  0  0  0  0  0  0  0
   -3.7397   -3.3263    5.8719 C   0  0  0  0  0  0  0  0  0  0  0  0
   -4.8743   -2.5403    6.5085 C   0  0  0  0  0  0  0  0  0  0  0  0
   -0.9512   -5.8029    8.4209 H   0  0  0  0  0  0  0  0  0  0  0  0
    2.8781   -6.5521   10.2022 C   0  0  0  0  0  0  0  0  0  0  0  0
    4.0556   -5.6743    9.8106 C   0  0  0  0  0  0  0  0  0  0  0  0
    1.9678   -3.7304    5.3636 C   0  0  0  0  0  0  0  0  0  0  0  0
    3.3287   -4.1263    5.9128 C   0  0  0  0  0  0  0  0  0  0  0  0
    3.1589   -4.7794    7.2188 N   0  0  0  0  0  0  0  0  0  0  0  0
    3.6216   -6.1608    7.4155 C   0  0  0  0  0  0  0  0  0  0  0  0
    4.6665   -6.1928    8.5189 C   0  0  0  0  0  0  0  0  0  0  0  0
    3.2440   -1.0943   10.4738 C   0  0  0  0  0  0  0  0  0  0  0  0
    5.9105   -0.3187   12.9638 C   0  0  0  0  0  0  0  0  0  0  0  0
    6.2951   -1.6425   13.3808 C   0  0  0  0  0  0  0  0  0  0  0  0
    5.6655   -2.7563   12.8305 N   0  0  0  0  0  0  0  0  0  0  0  0
    4.6640   -2.5900   11.8769 C   0  0  0  0  0  0  0  0  0  0  0  0
    4.2795   -1.2662   11.4598 C   0  0  0  0  0  0  0  0  0  0  0  0
 18 19  1  0  0  0
 19 20  1  0  0  0
 20 21  1  0  0  0
 21 22  1  0  0  0
 22 23  1  0  0  0
 23 24  1  0  0  0
 19 24  1  0  0  0
 22  1  1  0  0  0
  1  2  1  0  0  0
  2  3  2  0  0  0
  3  4  1  0  0  0
  4  5  2  0  0  0
  1  5  1  0  0  0
  4 25  1  0  0  0
 25 26  2  0  0  0
 26 27  1  0  0  0
 27 28  2  0  0  0
 28 29  1  0  0  0
 29 30  2  0  0  0
 25 30  1  0  0  0
  3  6  1  0  0  0
  6  7  2  0  0  0
  7  8  1  0  0  0
  8  9  2  0  0  0
  9 10  1  0  0  0
 10 11  2  0  0  0
  6 11  1  0  0  0
  9 12  1  0  0  0
 12 13  2  0  0  0
 13 14  1  0  0  0
 12 15  1  0  0  0
 15 16  1  0  0  0
  8 16  1  0  0  0
 14 17  1  0  0  0
M  END
> <minimizedAffinity>
-7.91845

$$$$
mol_139592319_3


 30 34  0  0  0  0  0  0  0  0999 V2000
    1.7698   -4.8057    8.6910 N   0  0  0  0  0  0  0  0  0  0  0  0
    0.0539   -1.2495   10.1989 C   0  0  0  0  0  0  0  0  0  0  0  0
    0.6129   -2.4716    9.6814 C   0  0  0  0  0  0  0  0  0  0  0  0
    2.0416   -2.6261    9.5853 C   0  0  0  0  0  0  0  0  0  0  0  0
    2.5822   -3.8081    9.0848 N   0  0  0  0  0  0  0  0  0  0  0  0
   -0.3050   -3.5986    9.2365 C   0  0  0  0  0  0  0  0  0  0  0  0
   -3.7468   -0.2731    7.2215 C   0  0  0  0  0  0  0  0  0  0  0  0
   -4.8674   -0.2656    6.3168 C   0  0  0  0  0  0  0  0  0  0  0  0
   -2.6385   -1.7349    6.8698 C   0  0  0  0  0  0  0  0  0  0  0  0
   -1.5708   -2.0002    7.7992 C   0  0  0  0  0  0  0  0  0  0  0  0
   -1.3727   -3.3333    8.3071 C   0  0  0  0  0  0  0  0  0  0  0  0
   -3.5564   -2.8619    6.4249 C   0  0  0  0  0  0  0  0  0  0  0  0
   -3.3754   -4.0796    6.8889 N   0  0  0  0  0  0  0  0  0  0  0  0
   -2.3598   -4.3321    7.7730 O   0  0  0  0  0  0  0  0  0  0  0  0
   -4.6832   -2.5820    5.4441 C   0  0  0  0  0  0  0  0  0  0  0  0
   -5.6289   -1.5515    6.0395 C   0  0  0  0  0  0  0  0  0  0  0  0
   -2.2222   -5.2576    8.1256 H   0  0  0  0  0  0  0  0  0  0  0  0
    1.8997   -3.4569    5.8520 C   0  0  0  0  0  0  0  0  0  0  0  0
    0.8600   -4.5109    6.1962 C   0  0  0  0  0  0  0  0  0  0  0  0
    3.5014   -6.7529   10.1848 C   0  0  0  0  0  0  0  0  0  0  0  0
    2.5420   -7.1550    9.0765 C   0  0  0  0  0  0  0  0  0  0  0  0
    2.3209   -6.0106    8.1807 N   0  0  0  0  0  0  0  0  0  0  0  0
    2.6704   -6.1138    6.7565 C   0  0  0  0  0  0  0  0  0  0  0  0
    1.4260   -5.8927    5.9122 C   0  0  0  0  0  0  0  0  0  0  0  0
    2.9594   -1.4991   10.0301 C   0  0  0  0  0  0  0  0  0  0  0  0
    5.2525   -0.6943   12.8596 C   0  0  0  0  0  0  0  0  0  0  0  0
    5.1211   -1.8780   13.6692 C   0  0  0  0  0  0  0  0  0  0  0  0
    4.2800   -2.9107   13.2618 N   0  0  0  0  0  0  0  0  0  0  0  0
    3.5661   -2.7986   12.0710 C   0  0  0  0  0  0  0  0  0  0  0  0
    3.6976   -1.6150   11.2613 C   0  0  0  0  0  0  0  0  0  0  0  0
 18 19  1  0  0  0
 19 20  1  0  0  0
 20 21  1  0  0  0
 21 22  1  0  0  0
 22 23  1  0  0  0
 23 24  1  0  0  0
 19 24  1  0  0  0
 22  1  1  0  0  0
  1  2  1  0  0  0
  2  3  2  0  0  0
  3  4  1  0  0  0
  4  5  2  0  0  0
  1  5  1  0  0  0
  4 25  1  0  0  0
 25 26  2  0  0  0
 26 27  1  0  0  0
 27 28  2  0  0  0
 28 29  1  0  0  0
 29 30  2  0  0  0
 25 30  1  0  0  0
  3  6  1  0  0  0
  6  7  2  0  0  0
  7  8  1  0  0  0
  8  9  2  0  0  0
  9 10  1  0  0  0
 10 11  2  0  0  0
  6 11  1  0  0  0
  9 12  1  0  0  0
 12 13  2  0  0  0
 13 14  1  0  0  0
 12 15  1  0  0  0
 15 16  1  0  0  0
  8 16  1  0  0  0
 14 17  1  0  0  0
M  END
> <minimizedAffinity>
-8.46254

$$$$
mol_139592319_3


 30 34  0  0  0  0  0  0  0  0999 V2000
    1.8316   -2.0452   10.7685 N   0  0  0  0  0  0  0  0  0  0  0  0
   -2.3316   -1.3201   10.6846 C   0  0  0  0  0  0  0  0  0  0  0  0
   -0.9180   -1.5944   10.7095 C   0  0  0  0  0  0  0  0  0  0  0  0
    0.0215   -0.5176   10.8882 C   0  0  0  0  0  0  0  0  0  0  0  0
    1.3886   -0.7829   10.9122 N   0  0  0  0  0  0  0  0  0  0  0  0
   -0.4176   -3.0205   10.5471 C   0  0  0  0  0  0  0  0  0  0  0  0
   -1.5656   -3.0624    5.4829 C   0  0  0  0  0  0  0  0  0  0  0  0
   -1.2667   -3.8198    4.2949 C   0  0  0  0  0  0  0  0  0  0  0  0
   -0.2123   -3.2836    6.7513 C   0  0  0  0  0  0  0  0  0  0  0  0
   -0.4388   -2.7455    8.0678 C   0  0  0  0  0  0  0  0  0  0  0  0
   -0.1911   -3.5586    9.2305 C   0  0  0  0  0  0  0  0  0  0  0  0
    0.2881   -4.7097    6.5888 C   0  0  0  0  0  0  0  0  0  0  0  0
    0.5142   -5.4525    7.6510 N   0  0  0  0  0  0  0  0  0  0  0  0
    0.2988   -4.9406    8.9033 O   0  0  0  0  0  0  0  0  0  0  0  0
    0.5271   -5.2777    5.1994 C   0  0  0  0  0  0  0  0  0  0  0  0
   -0.7725   -5.2524    4.4113 C   0  0  0  0  0  0  0  0  0  0  0  0
    0.4707   -5.5051    9.7106 H   0  0  0  0  0  0  0  0  0  0  0  0
    1.4681   -3.2707   13.6429 C   0  0  0  0  0  0  0  0  0  0  0  0
    2.1100   -1.9107   13.4224 C   0  0  0  0  0  0  0  0  0  0  0  0
    3.5701   -2.6858    8.4044 C   0  0  0  0  0  0  0  0  0  0  0  0
    4.0645   -1.9540    9.6415 C   0  0  0  0  0  0  0  0  0  0  0  0
    3.2253   -2.3158   10.7929 N   0  0  0  0  0  0  0  0  0  0  0  0
    3.8289   -2.9576   11.9696 C   0  0  0  0  0  0  0  0  0  0  0  0
    3.6025   -2.0859   13.1941 C   0  0  0  0  0  0  0  0  0  0  0  0
   -0.4789    0.9085   11.0505 C   0  0  0  0  0  0  0  0  0  0  0  0
   -1.2425    3.3233   13.7887 C   0  0  0  0  0  0  0  0  0  0  0  0
   -0.9233    2.5354   14.9512 C   0  0  0  0  0  0  0  0  0  0  0  0
   -0.4649    1.2287   14.8025 N   0  0  0  0  0  0  0  0  0  0  0  0
   -0.3149    0.6839   13.5294 C   0  0  0  0  0  0  0  0  0  0  0  0
   -0.6339    1.4718   12.3668 C   0  0  0  0  0  0  0  0  0  0  0  0
 18 19  1  0  0  0
 19 20  1  0  0  0
 20 21  1  0  0  0
 21 22  1  0  0  0
 22 23  1  0  0  0
 23 24  1  0  0  0
 19 24  1  0  0  0
 22  1  1  0  0  0
  1  2  1  0  0  0
  2  3  2  0  0  0
  3  4  1  0  0  0
  4  5  2  0  0  0
  1  5  1  0  0  0
  4 25  1  0  0  0
 25 26  2  0  0  0
 26 27  1  0  0  0
 27 28  2  0  0  0
 28 29  1  0  0  0
 29 30  2  0  0  0
 25 30  1  0  0  0
  3  6  1  0  0  0
  6  7  2  0  0  0
  7  8  1  0  0  0
  8  9  2  0  0  0
  9 10  1  0  0  0
 10 11  2  0  0  0
  6 11  1  0  0  0
  9 12  1  0  0  0
 12 13  2  0  0  0
 13 14  1  0  0  0
 12 15  1  0  0  0
 15 16  1  0  0  0
  8 16  1  0  0  0
 14 17  1  0  0  0
M  END
> <minimizedAffinity>
-8.37589

$$$$
mol_139592319_3


 30 34  0  0  0  0  0  0  0  0999 V2000
    2.5738   -4.0741    8.2970 N   0  0  0  0  0  0  0  0  0  0  0  0
    0.6827   -1.9904   11.4508 C   0  0  0  0  0  0  0  0  0  0  0  0
    1.3053   -2.7179   10.3751 C   0  0  0  0  0  0  0  0  0  0  0  0
    2.5918   -2.3051    9.8764 C   0  0  0  0  0  0  0  0  0  0  0  0
    3.1939   -3.0087    8.8361 N   0  0  0  0  0  0  0  0  0  0  0  0
    0.6046   -3.9216    9.7661 C   0  0  0  0  0  0  0  0  0  0  0  0
   -3.2725   -0.9932    7.9337 C   0  0  0  0  0  0  0  0  0  0  0  0
   -4.3466   -1.0658    6.9769 C   0  0  0  0  0  0  0  0  0  0  0  0
   -1.9240   -2.2067    7.4891 C   0  0  0  0  0  0  0  0  0  0  0  0
   -0.8599   -2.3982    8.4404 C   0  0  0  0  0  0  0  0  0  0  0  0
   -0.4595   -3.7301    8.8147 C   0  0  0  0  0  0  0  0  0  0  0  0
   -2.6246   -3.4104    6.8801 C   0  0  0  0  0  0  0  0  0  0  0  0
   -2.2590   -4.6270    7.2221 N   0  0  0  0  0  0  0  0  0  0  0  0
   -1.2467   -4.8092    8.1270 O   0  0  0  0  0  0  0  0  0  0  0  0
   -3.7477   -3.2083    5.8760 C   0  0  0  0  0  0  0  0  0  0  0  0
   -4.8724   -2.4187    6.5259 C   0  0  0  0  0  0  0  0  0  0  0  0
   -0.9687   -5.7339    8.3870 H   0  0  0  0  0  0  0  0  0  0  0  0
    2.8185   -6.5552   10.2155 C   0  0  0  0  0  0  0  0  0  0  0  0
    4.0209   -5.7030    9.8434 C   0  0  0  0  0  0  0  0  0  0  0  0
    2.0507   -3.7190    5.3607 C   0  0  0  0  0  0  0  0  0  0  0  0
    3.3934   -4.1433    5.9331 C   0  0  0  0  0  0  0  0  0  0  0  0
    3.1876   -4.7914    7.2364 N   0  0  0  0  0  0  0  0  0  0  0  0
    3.6173   -6.1822    7.4417 C   0  0  0  0  0  0  0  0  0  0  0  0
    4.6425   -6.2355    8.5626 C   0  0  0  0  0  0  0  0  0  0  0  0
    3.2923   -1.1014   10.4854 C   0  0  0  0  0  0  0  0  0  0  0  0
    5.9400   -0.3715   13.0091 C   0  0  0  0  0  0  0  0  0  0  0  0
    6.2958   -1.7016   13.4313 C   0  0  0  0  0  0  0  0  0  0  0  0
    5.6539   -2.8046   12.8734 N   0  0  0  0  0  0  0  0  0  0  0  0
    4.6678   -2.6211   11.9070 C   0  0  0  0  0  0  0  0  0  0  0  0
    4.3120   -1.2911   11.4846 C   0  0  0  0  0  0  0  0  0  0  0  0
 18 19  1  0  0  0
 19 20  1  0  0  0
 20 21  1  0  0  0
 21 22  1  0  0  0
 22 23  1  0  0  0
 23 24  1  0  0  0
 19 24  1  0  0  0
 22  1  1  0  0  0
  1  2  1  0  0  0
  2  3  2  0  0  0
  3  4  1  0  0  0
  4  5  2  0  0  0
  1  5  1  0  0  0
  4 25  1  0  0  0
 25 26  2  0  0  0
 26 27  1  0  0  0
 27 28  2  0  0  0
 28 29  1  0  0  0
 29 30  2  0  0  0
 25 30  1  0  0  0
  3  6  1  0  0  0
  6  7  2  0  0  0
  7  8  1  0  0  0
  8  9  2  0  0  0
  9 10  1  0  0  0
 10 11  2  0  0  0
  6 11  1  0  0  0
  9 12  1  0  0  0
 12 13  2  0  0  0
 13 14  1  0  0  0
 12 15  1  0  0  0
 15 16  1  0  0  0
  8 16  1  0  0  0
 14 17  1  0  0  0
M  END
> <minimizedAffinity>
-7.94118

$$$$
mol_135927350_4


 30 34  0  0  0  0  0  0  0  0999 V2000
    1.8207   -4.7962    8.6979 N   0  0  0  0  0  0  0  0  0  0  0  0
    0.1429   -1.2322   10.2301 C   0  0  0  0  0  0  0  0  0  0  0  0
    0.6888   -2.4570    9.7047 C   0  0  0  0  0  0  0  0  0  0  0  0
    2.1151   -2.6157    9.5829 C   0  0  0  0  0  0  0  0  0  0  0  0
    2.6430   -3.8002    9.0748 N   0  0  0  0  0  0  0  0  0  0  0  0
   -0.2402   -3.5820    9.2789 C   0  0  0  0  0  0  0  0  0  0  0  0
   -3.6767   -0.2536    7.2595 C   0  0  0  0  0  0  0  0  0  0  0  0
   -4.8049   -0.2476    6.3643 C   0  0  0  0  0  0  0  0  0  0  0  0
   -2.5813   -1.7265    6.9133 C   0  0  0  0  0  0  0  0  0  0  0  0
   -1.5074   -1.9897    7.8364 C   0  0  0  0  0  0  0  0  0  0  0  0
   -1.3140   -3.3189    8.3558 C   0  0  0  0  0  0  0  0  0  0  0  0
   -3.5103   -2.8516    6.4875 C   0  0  0  0  0  0  0  0  0  0  0  0
   -3.3336   -4.0659    6.9621 N   0  0  0  0  0  0  0  0  0  0  0  0
   -2.3122   -4.3161    7.8401 O   0  0  0  0  0  0  0  0  0  0  0  0
   -4.6436   -2.5738    5.5134 C   0  0  0  0  0  0  0  0  0  0  0  0
   -5.5772   -1.5311    6.1062 C   0  0  0  0  0  0  0  0  0  0  0  0
   -2.1778   -5.2392    8.2008 H   0  0  0  0  0  0  0  0  0  0  0  0
    1.9107   -3.4503    5.8560 C   0  0  0  0  0  0  0  0  0  0  0  0
    0.8724   -4.4999    6.2177 C   0  0  0  0  0  0  0  0  0  0  0  0
    3.5683   -6.7490   10.1656 C   0  0  0  0  0  0  0  0  0  0  0  0
    2.5899   -7.1482    9.0731 C   0  0  0  0  0  0  0  0  0  0  0  0
    2.3589   -6.0038    8.1799 N   0  0  0  0  0  0  0  0  0  0  0  0
    2.6853   -6.1095    6.7505 C   0  0  0  0  0  0  0  0  0  0  0  0
    1.4285   -5.8841    5.9259 C   0  0  0  0  0  0  0  0  0  0  0  0
    3.0441   -1.4906   10.0087 C   0  0  0  0  0  0  0  0  0  0  0  0
    5.4624   -0.7271   12.7438 C   0  0  0  0  0  0  0  0  0  0  0  0
    5.3787   -1.9293   13.5325 C   0  0  0  0  0  0  0  0  0  0  0  0
    4.5274   -2.9603   13.1424 N   0  0  0  0  0  0  0  0  0  0  0  0
    3.7570   -2.8288   11.9895 C   0  0  0  0  0  0  0  0  0  0  0  0
    3.8408   -1.6266   11.2008 C   0  0  0  0  0  0  0  0  0  0  0  0
 18 19  1  0  0  0
 19 20  1  0  0  0
 20 21  1  0  0  0
 21 22  1  0  0  0
 22 23  1  0  0  0
 23 24  1  0  0  0
 19 24  1  0  0  0
 22  1  1  0  0  0
  1  2  1  0  0  0
  2  3  2  0  0  0
  3  4  1  0  0  0
  4  5  2  0  0  0
  1  5  1  0  0  0
  4 25  1  0  0  0
 25 26  2  0  0  0
 26 27  1  0  0  0
 27 28  2  0  0  0
 28 29  1  0  0  0
 29 30  2  0  0  0
 25 30  1  0  0  0
  3  6  1  0  0  0
  6  7  2  0  0  0
  7  8  1  0  0  0
  8  9  2  0  0  0
  9 10  1  0  0  0
 10 11  2  0  0  0
  6 11  1  0  0  0
  9 12  1  0  0  0
 12 13  2  0  0  0
 13 14  1  0  0  0
 12 15  1  0  0  0
 15 16  1  0  0  0
  8 16  1  0  0  0
 14 17  1  0  0  0
M  END
> <minimizedAffinity>
-8.48747

$$$$
mol_135927350_4


 30 34  0  0  0  0  0  0  0  0999 V2000
    1.8137   -2.0196   10.7564 N   0  0  0  0  0  0  0  0  0  0  0  0
   -2.3380   -1.2385   10.6227 C   0  0  0  0  0  0  0  0  0  0  0  0
   -0.9286   -1.5318   10.6644 C   0  0  0  0  0  0  0  0  0  0  0  0
    0.0231   -0.4677   10.8550 C   0  0  0  0  0  0  0  0  0  0  0  0
    1.3861   -0.7515   10.8954 N   0  0  0  0  0  0  0  0  0  0  0  0
   -0.4455   -2.9644   10.5073 C   0  0  0  0  0  0  0  0  0  0  0  0
   -1.5939   -3.0114    5.4433 C   0  0  0  0  0  0  0  0  0  0  0  0
   -1.3043   -3.7768    4.2582 C   0  0  0  0  0  0  0  0  0  0  0  0
   -0.2434   -3.2444    6.7126 C   0  0  0  0  0  0  0  0  0  0  0  0
   -0.4634   -2.6985    8.0271 C   0  0  0  0  0  0  0  0  0  0  0  0
   -0.2256   -3.5102    9.1928 C   0  0  0  0  0  0  0  0  0  0  0  0
    0.2396   -4.6769    6.5556 C   0  0  0  0  0  0  0  0  0  0  0  0
    0.4568   -5.4184    7.6205 N   0  0  0  0  0  0  0  0  0  0  0  0
    0.2475   -4.8992    8.8709 O   0  0  0  0  0  0  0  0  0  0  0  0
    0.4717   -5.2529    5.1682 C   0  0  0  0  0  0  0  0  0  0  0  0
   -0.8274   -5.2149    4.3799 C   0  0  0  0  0  0  0  0  0  0  0  0
    0.4127   -5.4628    9.6803 H   0  0  0  0  0  0  0  0  0  0  0  0
    1.3989   -3.2418   13.6252 C   0  0  0  0  0  0  0  0  0  0  0  0
    2.0616   -1.8903   13.4135 C   0  0  0  0  0  0  0  0  0  0  0  0
    3.5722   -2.6820    8.4131 C   0  0  0  0  0  0  0  0  0  0  0  0
    4.0612   -1.9577    9.6567 C   0  0  0  0  0  0  0  0  0  0  0  0
    3.2033   -2.3088   10.7976 N   0  0  0  0  0  0  0  0  0  0  0  0
    3.7840   -2.9593   11.9810 C   0  0  0  0  0  0  0  0  0  0  0  0
    3.5543   -2.0854   13.2032 C   0  0  0  0  0  0  0  0  0  0  0  0
   -0.4600    0.9649   11.0120 C   0  0  0  0  0  0  0  0  0  0  0  0
   -1.2016    3.3965   13.7413 C   0  0  0  0  0  0  0  0  0  0  0  0
   -0.8959    2.6078   14.9069 C   0  0  0  0  0  0  0  0  0  0  0  0
   -0.4532    1.2951   14.7631 N   0  0  0  0  0  0  0  0  0  0  0  0
   -0.3062    0.7450   13.4920 C   0  0  0  0  0  0  0  0  0  0  0  0
   -0.6120    1.5337   12.3264 C   0  0  0  0  0  0  0  0  0  0  0  0
 18 19  1  0  0  0
 19 20  1  0  0  0
 20 21  1  0  0  0
 21 22  1  0  0  0
 22 23  1  0  0  0
 23 24  1  0  0  0
 19 24  1  0  0  0
 22  1  1  0  0  0
  1  2  1  0  0  0
  2  3  2  0  0  0
  3  4  1  0  0  0
  4  5  2  0  0  0
  1  5  1  0  0  0
  4 25  1  0  0  0
 25 26  2  0  0  0
 26 27  1  0  0  0
 27 28  2  0  0  0
 28 29  1  0  0  0
 29 30  2  0  0  0
 25 30  1  0  0  0
  3  6  1  0  0  0
  6  7  2  0  0  0
  7  8  1  0  0  0
  8  9  2  0  0  0
  9 10  1  0  0  0
 10 11  2  0  0  0
  6 11  1  0  0  0
  9 12  1  0  0  0
 12 13  2  0  0  0
 13 14  1  0  0  0
 12 15  1  0  0  0
 15 16  1  0  0  0
  8 16  1  0  0  0
 14 17  1  0  0  0
M  END
> <minimizedAffinity>
-8.39886

$$$$
mol_135927350_4


 30 34  0  0  0  0  0  0  0  0999 V2000
    2.4561   -4.0433    8.2457 N   0  0  0  0  0  0  0  0  0  0  0  0
    0.6214   -2.0046   11.4616 C   0  0  0  0  0  0  0  0  0  0  0  0
    1.2249   -2.7169   10.3649 C   0  0  0  0  0  0  0  0  0  0  0  0
    2.4981   -2.2911    9.8433 C   0  0  0  0  0  0  0  0  0  0  0  0
    3.0817   -2.9800    8.7829 N   0  0  0  0  0  0  0  0  0  0  0  0
    0.5182   -3.9179    9.7581 C   0  0  0  0  0  0  0  0  0  0  0  0
   -3.3354   -0.9709    7.9060 C   0  0  0  0  0  0  0  0  0  0  0  0
   -4.4075   -1.0398    6.9467 C   0  0  0  0  0  0  0  0  0  0  0  0
   -1.9936   -2.1946    7.4688 C   0  0  0  0  0  0  0  0  0  0  0  0
   -0.9331   -2.3897    8.4236 C   0  0  0  0  0  0  0  0  0  0  0  0
   -0.5423   -3.7228    8.8033 C   0  0  0  0  0  0  0  0  0  0  0  0
   -2.7003   -3.3957    6.8620 C   0  0  0  0  0  0  0  0  0  0  0  0
   -2.3434   -4.6136    7.2090 N   0  0  0  0  0  0  0  0  0  0  0  0
   -1.3346   -4.7991    8.1172 O   0  0  0  0  0  0  0  0  0  0  0  0
   -3.8196   -3.1898    5.8544 C   0  0  0  0  0  0  0  0  0  0  0  0
   -4.9408   -2.3908    6.4986 C   0  0  0  0  0  0  0  0  0  0  0  0
   -1.0632   -5.7248    8.3808 H   0  0  0  0  0  0  0  0  0  0  0  0
    2.8161   -6.5210   10.1501 C   0  0  0  0  0  0  0  0  0  0  0  0
    3.9871   -5.6422    9.7416 C   0  0  0  0  0  0  0  0  0  0  0  0
    1.8317   -3.6956    5.3283 C   0  0  0  0  0  0  0  0  0  0  0  0
    3.2008   -4.0913    5.8566 C   0  0  0  0  0  0  0  0  0  0  0  0
    3.0512   -4.7456    7.1644 N   0  0  0  0  0  0  0  0  0  0  0  0
    3.5174   -6.1268    7.3530 C   0  0  0  0  0  0  0  0  0  0  0  0
    4.5788   -6.1593    8.4405 C   0  0  0  0  0  0  0  0  0  0  0  0
    3.2048   -1.0900   10.4502 C   0  0  0  0  0  0  0  0  0  0  0  0
    5.9171   -0.3723   12.9079 C   0  0  0  0  0  0  0  0  0  0  0  0
    6.2971   -1.7051   13.2996 C   0  0  0  0  0  0  0  0  0  0  0  0
    5.6496   -2.8057   12.7436 N   0  0  0  0  0  0  0  0  0  0  0  0
    4.6344   -2.6175   11.8086 C   0  0  0  0  0  0  0  0  0  0  0  0
    4.2545   -1.2847   11.4169 C   0  0  0  0  0  0  0  0  0  0  0  0
 18 19  1  0  0  0
 19 20  1  0  0  0
 20 21  1  0  0  0
 21 22  1  0  0  0
 22 23  1  0  0  0
 23 24  1  0  0  0
 19 24  1  0  0  0
 22  1  1  0  0  0
  1  2  1  0  0  0
  2  3  2  0  0  0
  3  4  1  0  0  0
  4  5  2  0  0  0
  1  5  1  0  0  0
  4 25  1  0  0  0
 25 26  2  0  0  0
 26 27  1  0  0  0
 27 28  2  0  0  0
 28 29  1  0  0  0
 29 30  2  0  0  0
 25 30  1  0  0  0
  3  6  1  0  0  0
  6  7  2  0  0  0
  7  8  1  0  0  0
  8  9  2  0  0  0
  9 10  1  0  0  0
 10 11  2  0  0  0
  6 11  1  0  0  0
  9 12  1  0  0  0
 12 13  2  0  0  0
 13 14  1  0  0  0
 12 15  1  0  0  0
 15 16  1  0  0  0
  8 16  1  0  0  0
 14 17  1  0  0  0
M  END
> <minimizedAffinity>
-7.99880

$$$$
mol_91896025_5


 30 34  0  0  0  0  0  0  0  0999 V2000
    1.7930   -4.8192    8.7404 N   0  0  0  0  0  0  0  0  0  0  0  0
    0.0343   -1.2737   10.2238 C   0  0  0  0  0  0  0  0  0  0  0  0
    0.6080   -2.4925    9.7144 C   0  0  0  0  0  0  0  0  0  0  0  0
    2.0387   -2.6356    9.6321 C   0  0  0  0  0  0  0  0  0  0  0  0
    2.5935   -3.8143    9.1395 N   0  0  0  0  0  0  0  0  0  0  0  0
   -0.2965   -3.6278    9.2635 C   0  0  0  0  0  0  0  0  0  0  0  0
   -3.7585   -0.3339    7.2312 C   0  0  0  0  0  0  0  0  0  0  0  0
   -4.8740   -0.3365    6.3201 C   0  0  0  0  0  0  0  0  0  0  0  0
   -2.6343   -1.7849    6.8849 C   0  0  0  0  0  0  0  0  0  0  0  0
   -1.5693   -2.0406    7.8202 C   0  0  0  0  0  0  0  0  0  0  0  0
   -1.3614   -3.3721    8.3283 C   0  0  0  0  0  0  0  0  0  0  0  0
   -3.5388   -2.9203    6.4341 C   0  0  0  0  0  0  0  0  0  0  0  0
   -3.3488   -4.1366    6.8983 N   0  0  0  0  0  0  0  0  0  0  0  0
   -2.3358   -4.3798    7.7879 O   0  0  0  0  0  0  0  0  0  0  0  0
   -4.6627   -2.6504    5.4470 C   0  0  0  0  0  0  0  0  0  0  0  0
   -5.6215   -1.6294    6.0376 C   0  0  0  0  0  0  0  0  0  0  0  0
   -2.1914   -5.3043    8.1407 H   0  0  0  0  0  0  0  0  0  0  0  0
    1.9538   -3.4707    5.9028 C   0  0  0  0  0  0  0  0  0  0  0  0
    0.9159   -4.5310    6.2330 C   0  0  0  0  0  0  0  0  0  0  0  0
    3.5157   -6.7552   10.2588 C   0  0  0  0  0  0  0  0  0  0  0  0
    2.5743   -7.1636    9.1374 C   0  0  0  0  0  0  0  0  0  0  0  0
    2.3586   -6.0210    8.2381 N   0  0  0  0  0  0  0  0  0  0  0  0
    2.7284   -6.1225    6.8191 C   0  0  0  0  0  0  0  0  0  0  0  0
    1.4944   -5.9093    5.9574 C   0  0  0  0  0  0  0  0  0  0  0  0
    2.9432   -1.5002   10.0831 C   0  0  0  0  0  0  0  0  0  0  0  0
    5.1860   -0.6615   12.9428 C   0  0  0  0  0  0  0  0  0  0  0  0
    5.0479   -1.8398   13.7594 C   0  0  0  0  0  0  0  0  0  0  0  0
    4.2191   -2.8801   13.3462 N   0  0  0  0  0  0  0  0  0  0  0  0
    3.5239   -2.7810   12.1433 C   0  0  0  0  0  0  0  0  0  0  0  0
    3.6621   -1.6028   11.3268 C   0  0  0  0  0  0  0  0  0  0  0  0
 18 19  1  0  0  0
 19 20  1  0  0  0
 20 21  1  0  0  0
 21 22  1  0  0  0
 22 23  1  0  0  0
 23 24  1  0  0  0
 19 24  1  0  0  0
 22  1  1  0  0  0
  1  2  1  0  0  0
  2  3  2  0  0  0
  3  4  1  0  0  0
  4  5  2  0  0  0
  1  5  1  0  0  0
  4 25  1  0  0  0
 25 26  2  0  0  0
 26 27  1  0  0  0
 27 28  2  0  0  0
 28 29  1  0  0  0
 29 30  2  0  0  0
 25 30  1  0  0  0
  3  6  1  0  0  0
  6  7  2  0  0  0
  7  8  1  0  0  0
  8  9  2  0  0  0
  9 10  1  0  0  0
 10 11  2  0  0  0
  6 11  1  0  0  0
  9 12  1  0  0  0
 12 13  2  0  0  0
 13 14  1  0  0  0
 12 15  1  0  0  0
 15 16  1  0  0  0
  8 16  1  0  0  0
 14 17  1  0  0  0
M  END
> <minimizedAffinity>
-8.45428

$$$$
mol_91896025_5


 30 34  0  0  0  0  0  0  0  0999 V2000
    1.8446   -2.0403   10.7964 N   0  0  0  0  0  0  0  0  0  0  0  0
   -2.3208   -1.3289   10.7116 C   0  0  0  0  0  0  0  0  0  0  0  0
   -0.9063   -1.5986   10.7366 C   0  0  0  0  0  0  0  0  0  0  0  0
    0.0294   -0.5194   10.9214 C   0  0  0  0  0  0  0  0  0  0  0  0
    1.3973   -0.7803   10.9456 N   0  0  0  0  0  0  0  0  0  0  0  0
   -0.4010   -3.0222   10.5680 C   0  0  0  0  0  0  0  0  0  0  0  0
   -1.5834   -3.0596    5.5117 C   0  0  0  0  0  0  0  0  0  0  0  0
   -1.2894   -3.8135    4.3203 C   0  0  0  0  0  0  0  0  0  0  0  0
   -0.2205   -3.2775    6.7705 C   0  0  0  0  0  0  0  0  0  0  0  0
   -0.4403   -2.7427    8.0896 C   0  0  0  0  0  0  0  0  0  0  0  0
   -0.1813   -3.5568    9.2490 C   0  0  0  0  0  0  0  0  0  0  0  0
    0.2848   -4.7011    6.6020 C   0  0  0  0  0  0  0  0  0  0  0  0
    0.5214   -5.4448    7.6611 N   0  0  0  0  0  0  0  0  0  0  0  0
    0.3124   -4.9362    8.9159 O   0  0  0  0  0  0  0  0  0  0  0  0
    0.5167   -5.2654    5.2098 C   0  0  0  0  0  0  0  0  0  0  0  0
   -0.7883   -5.2443    4.4306 C   0  0  0  0  0  0  0  0  0  0  0  0
    0.4922   -5.5014    9.7209 H   0  0  0  0  0  0  0  0  0  0  0  0
    1.4880   -3.2491   13.6787 C   0  0  0  0  0  0  0  0  0  0  0  0
    2.1254   -1.8885   13.4492 C   0  0  0  0  0  0  0  0  0  0  0  0
    3.5828   -2.6901    8.4346 C   0  0  0  0  0  0  0  0  0  0  0  0
    4.0762   -1.9491    9.6667 C   0  0  0  0  0  0  0  0  0  0  0  0
    3.2393   -2.3064   10.8212 N   0  0  0  0  0  0  0  0  0  0  0  0
    3.8461   -2.9390   12.0011 C   0  0  0  0  0  0  0  0  0  0  0  0
    3.6183   -2.0605   13.2205 C   0  0  0  0  0  0  0  0  0  0  0  0
   -0.4760    0.9042   11.0900 C   0  0  0  0  0  0  0  0  0  0  0  0
   -1.2294    3.3109   13.8380 C   0  0  0  0  0  0  0  0  0  0  0  0
   -0.8982    2.5224   14.9968 C   0  0  0  0  0  0  0  0  0  0  0  0
   -0.4351    1.2180   14.8423 N   0  0  0  0  0  0  0  0  0  0  0  0
   -0.2923    0.6760   13.5672 C   0  0  0  0  0  0  0  0  0  0  0  0
   -0.6235    1.4646   12.4085 C   0  0  0  0  0  0  0  0  0  0  0  0
 18 19  1  0  0  0
 19 20  1  0  0  0
 20 21  1  0  0  0
 21 22  1  0  0  0
 22 23  1  0  0  0
 23 24  1  0  0  0
 19 24  1  0  0  0
 22  1  1  0  0  0
  1  2  1  0  0  0
  2  3  2  0  0  0
  3  4  1  0  0  0
  4  5  2  0  0  0
  1  5  1  0  0  0
  4 25  1  0  0  0
 25 26  2  0  0  0
 26 27  1  0  0  0
 27 28  2  0  0  0
 28 29  1  0  0  0
 29 30  2  0  0  0
 25 30  1  0  0  0
  3  6  1  0  0  0
  6  7  2  0  0  0
  7  8  1  0  0  0
  8  9  2  0  0  0
  9 10  1  0  0  0
 10 11  2  0  0  0
  6 11  1  0  0  0
  9 12  1  0  0  0
 12 13  2  0  0  0
 13 14  1  0  0  0
 12 15  1  0  0  0
 15 16  1  0  0  0
  8 16  1  0  0  0
 14 17  1  0  0  0
M  END
> <minimizedAffinity>
-8.35664

$$$$
mol_91896025_5


 30 34  0  0  0  0  0  0  0  0999 V2000
   -0.6176   -1.2413   10.0954 N   0  0  0  0  0  0  0  0  0  0  0  0
   -0.2891   -4.1263    7.0239 C   0  0  0  0  0  0  0  0  0  0  0  0
   -0.3735   -3.1452    8.0750 C   0  0  0  0  0  0  0  0  0  0  0  0
   -1.6443   -2.5557    8.4096 C   0  0  0  0  0  0  0  0  0  0  0  0
   -1.7258   -1.6071    9.4260 N   0  0  0  0  0  0  0  0  0  0  0  0
    0.8786   -2.7321    8.8312 C   0  0  0  0  0  0  0  0  0  0  0  0
    2.3955   -7.6632    9.4213 C   0  0  0  0  0  0  0  0  0  0  0  0
    3.5750   -8.4166    9.7614 C   0  0  0  0  0  0  0  0  0  0  0  0
    2.8679   -5.9812    8.7604 C   0  0  0  0  0  0  0  0  0  0  0  0
    1.8093   -5.0287    8.5451 C   0  0  0  0  0  0  0  0  0  0  0  0
    1.9371   -3.6846    9.0464 C   0  0  0  0  0  0  0  0  0  0  0  0
    4.1200   -5.5679    9.5166 C   0  0  0  0  0  0  0  0  0  0  0  0
    4.2367   -4.3401    9.9746 N   0  0  0  0  0  0  0  0  0  0  0  0
    3.2298   -3.4341    9.7698 O   0  0  0  0  0  0  0  0  0  0  0  0
    5.2372   -6.5733    9.7437 C   0  0  0  0  0  0  0  0  0  0  0  0
    4.7024   -7.7546   10.5367 C   0  0  0  0  0  0  0  0  0  0  0  0
    3.3186   -2.5008   10.1179 H   0  0  0  0  0  0  0  0  0  0  0  0
    0.2637   -3.4641   12.1396 C   0  0  0  0  0  0  0  0  0  0  0  0
   -1.1697   -2.9644   12.0614 C   0  0  0  0  0  0  0  0  0  0  0  0
   -0.1098    1.7075    9.8336 C   0  0  0  0  0  0  0  0  0  0  0  0
   -1.0987    1.1059   10.8188 C   0  0  0  0  0  0  0  0  0  0  0  0
   -0.7007   -0.2741   11.1318 N   0  0  0  0  0  0  0  0  0  0  0  0
   -0.3887   -0.6528   12.5174 C   0  0  0  0  0  0  0  0  0  0  0  0
   -1.3346   -1.7546   12.9667 C   0  0  0  0  0  0  0  0  0  0  0  0
   -2.8964   -2.9690    7.6533 C   0  0  0  0  0  0  0  0  0  0  0  0
   -5.6682   -1.3808    5.7282 C   0  0  0  0  0  0  0  0  0  0  0  0
   -5.3078    0.0107    5.8184 C   0  0  0  0  0  0  0  0  0  0  0  0
   -4.1605    0.3893    6.5114 N   0  0  0  0  0  0  0  0  0  0  0  0
   -3.3617   -0.5777    7.1172 C   0  0  0  0  0  0  0  0  0  0  0  0
   -3.7222   -1.9691    7.0268 C   0  0  0  0  0  0  0  0  0  0  0  0
 18 19  1  0  0  0
 19 20  1  0  0  0
 20 21  1  0  0  0
 21 22  1  0  0  0
 22 23  1  0  0  0
 23 24  1  0  0  0
 19 24  1  0  0  0
 22  1  1  0  0  0
  1  2  1  0  0  0
  2  3  2  0  0  0
  3  4  1  0  0  0
  4  5  2  0  0  0
  1  5  1  0  0  0
  4 25  1  0  0  0
 25 26  2  0  0  0
 26 27  1  0  0  0
 27 28  2  0  0  0
 28 29  1  0  0  0
 29 30  2  0  0  0
 25 30  1  0  0  0
  3  6  1  0  0  0
  6  7  2  0  0  0
  7  8  1  0  0  0
  8  9  2  0  0  0
  9 10  1  0  0  0
 10 11  2  0  0  0
  6 11  1  0  0  0
  9 12  1  0  0  0
 12 13  2  0  0  0
 13 14  1  0  0  0
 12 15  1  0  0  0
 15 16  1  0  0  0
  8 16  1  0  0  0
 14 17  1  0  0  0
M  END
> <minimizedAffinity>
-7.88941

$$$$
mol_91896028_6


 30 34  0  0  0  0  0  0  0  0999 V2000
    1.7614   -4.7937    8.6710 N   0  0  0  0  0  0  0  0  0  0  0  0
    0.0848   -1.2340   10.2144 C   0  0  0  0  0  0  0  0  0  0  0  0
    0.6303   -2.4572    9.6851 C   0  0  0  0  0  0  0  0  0  0  0  0
    2.0568   -2.6200    9.5722 C   0  0  0  0  0  0  0  0  0  0  0  0
    2.5843   -3.8031    9.0602 N   0  0  0  0  0  0  0  0  0  0  0  0
   -0.2996   -3.5763    9.2452 C   0  0  0  0  0  0  0  0  0  0  0  0
   -3.7052   -0.2234    7.2141 C   0  0  0  0  0  0  0  0  0  0  0  0
   -4.8255   -0.2080    6.3093 C   0  0  0  0  0  0  0  0  0  0  0  0
   -2.6126   -1.6987    6.8696 C   0  0  0  0  0  0  0  0  0  0  0  0
   -1.5478   -1.9712    7.8004 C   0  0  0  0  0  0  0  0  0  0  0  0
   -1.3643   -3.3039    8.3144 C   0  0  0  0  0  0  0  0  0  0  0  0
   -3.5425   -2.8178    6.4297 C   0  0  0  0  0  0  0  0  0  0  0  0
   -3.3747   -4.0352    6.8993 N   0  0  0  0  0  0  0  0  0  0  0  0
   -2.3619   -4.2944    7.7848 O   0  0  0  0  0  0  0  0  0  0  0  0
   -4.6662   -2.5303    5.4474 C   0  0  0  0  0  0  0  0  0  0  0  0
   -5.6007   -1.4870    6.0377 C   0  0  0  0  0  0  0  0  0  0  0  0
   -2.2344   -5.2198    8.1418 H   0  0  0  0  0  0  0  0  0  0  0  0
    1.8537   -3.4375    5.8340 C   0  0  0  0  0  0  0  0  0  0  0  0
    0.8146   -4.4878    6.1912 C   0  0  0  0  0  0  0  0  0  0  0  0
    3.5070   -6.7529   10.1325 C   0  0  0  0  0  0  0  0  0  0  0  0
    2.5289   -7.1475    9.0381 C   0  0  0  0  0  0  0  0  0  0  0  0
    2.2992   -5.9997    8.1489 N   0  0  0  0  0  0  0  0  0  0  0  0
    2.6262   -6.1004    6.7192 C   0  0  0  0  0  0  0  0  0  0  0  0
    1.3699   -5.8713    5.8947 C   0  0  0  0  0  0  0  0  0  0  0  0
    2.9866   -1.5010   10.0120 C   0  0  0  0  0  0  0  0  0  0  0  0
    5.3334   -0.7340   12.8079 C   0  0  0  0  0  0  0  0  0  0  0  0
    5.2122   -1.9258   13.6074 C   0  0  0  0  0  0  0  0  0  0  0  0
    4.3602   -2.9512   13.2043 N   0  0  0  0  0  0  0  0  0  0  0  0
    3.6254   -2.8242   12.0280 C   0  0  0  0  0  0  0  0  0  0  0  0
    3.7465   -1.6324   11.2285 C   0  0  0  0  0  0  0  0  0  0  0  0
 18 19  1  0  0  0
 19 20  1  0  0  0
 20 21  1  0  0  0
 21 22  1  0  0  0
 22 23  1  0  0  0
 23 24  1  0  0  0
 19 24  1  0  0  0
 22  1  1  0  0  0
  1  2  1  0  0  0
  2  3  2  0  0  0
  3  4  1  0  0  0
  4  5  2  0  0  0
  1  5  1  0  0  0
  4 25  1  0  0  0
 25 26  2  0  0  0
 26 27  1  0  0  0
 27 28  2  0  0  0
 28 29  1  0  0  0
 29 30  2  0  0  0
 25 30  1  0  0  0
  3  6  1  0  0  0
  6  7  2  0  0  0
  7  8  1  0  0  0
  8  9  2  0  0  0
  9 10  1  0  0  0
 10 11  2  0  0  0
  6 11  1  0  0  0
  9 12  1  0  0  0
 12 13  2  0  0  0
 13 14  1  0  0  0
 12 15  1  0  0  0
 15 16  1  0  0  0
  8 16  1  0  0  0
 14 17  1  0  0  0
M  END
> <minimizedAffinity>
-8.46396

$$$$
mol_91896028_6


 30 34  0  0  0  0  0  0  0  0999 V2000
    1.8028   -2.1124   10.7016 N   0  0  0  0  0  0  0  0  0  0  0  0
   -2.3501   -1.3274   10.7460 C   0  0  0  0  0  0  0  0  0  0  0  0
   -0.9405   -1.6221   10.7274 C   0  0  0  0  0  0  0  0  0  0  0  0
    0.0195   -0.5583   10.8722 C   0  0  0  0  0  0  0  0  0  0  0  0
    1.3828   -0.8434   10.8543 N   0  0  0  0  0  0  0  0  0  0  0  0
   -0.4660   -3.0558   10.5548 C   0  0  0  0  0  0  0  0  0  0  0  0
   -1.5871   -3.0309    5.4844 C   0  0  0  0  0  0  0  0  0  0  0  0
   -1.2961   -3.7831    4.2913 C   0  0  0  0  0  0  0  0  0  0  0  0
   -0.2452   -3.2889    6.7580 C   0  0  0  0  0  0  0  0  0  0  0  0
   -0.4686   -2.7583    8.0781 C   0  0  0  0  0  0  0  0  0  0  0  0
   -0.2426   -3.5863    9.2346 C   0  0  0  0  0  0  0  0  0  0  0  0
    0.2293   -4.7226    6.5852 C   0  0  0  0  0  0  0  0  0  0  0  0
    0.4357   -5.4789    7.6418 N   0  0  0  0  0  0  0  0  0  0  0  0
    0.2232   -4.9743    8.8976 O   0  0  0  0  0  0  0  0  0  0  0  0
    0.4651   -5.2825    5.1920 C   0  0  0  0  0  0  0  0  0  0  0  0
   -0.8293   -5.2257    4.3973 C   0  0  0  0  0  0  0  0  0  0  0  0
    0.3800   -5.5492    9.7007 H   0  0  0  0  0  0  0  0  0  0  0  0
    1.5303   -3.2405   13.6255 C   0  0  0  0  0  0  0  0  0  0  0  0
    2.1823   -1.8979   13.3376 C   0  0  0  0  0  0  0  0  0  0  0  0
    3.4426   -2.8538    8.2967 C   0  0  0  0  0  0  0  0  0  0  0  0
    3.9930   -2.0907    9.4903 C   0  0  0  0  0  0  0  0  0  0  0  0
    3.1926   -2.4031   10.6831 N   0  0  0  0  0  0  0  0  0  0  0  0
    3.8310   -3.0162   11.8568 C   0  0  0  0  0  0  0  0  0  0  0  0
    3.6627   -2.1027   13.0601 C   0  0  0  0  0  0  0  0  0  0  0  0
   -0.4549    0.8753   11.0449 C   0  0  0  0  0  0  0  0  0  0  0  0
   -1.1653    3.2868   13.8002 C   0  0  0  0  0  0  0  0  0  0  0  0
   -0.8558    2.4865   14.9569 C   0  0  0  0  0  0  0  0  0  0  0  0
   -0.4210    1.1728   14.7986 N   0  0  0  0  0  0  0  0  0  0  0  0
   -0.2855    0.6330   13.5218 C   0  0  0  0  0  0  0  0  0  0  0  0
   -0.5950    1.4334   12.3652 C   0  0  0  0  0  0  0  0  0  0  0  0
 18 19  1  0  0  0
 19 20  1  0  0  0
 20 21  1  0  0  0
 21 22  1  0  0  0
 22 23  1  0  0  0
 23 24  1  0  0  0
 19 24  1  0  0  0
 22  1  1  0  0  0
  1  2  1  0  0  0
  2  3  2  0  0  0
  3  4  1  0  0  0
  4  5  2  0  0  0
  1  5  1  0  0  0
  4 25  1  0  0  0
 25 26  2  0  0  0
 26 27  1  0  0  0
 27 28  2  0  0  0
 28 29  1  0  0  0
 29 30  2  0  0  0
 25 30  1  0  0  0
  3  6  1  0  0  0
  6  7  2  0  0  0
  7  8  1  0  0  0
  8  9  2  0  0  0
  9 10  1  0  0  0
 10 11  2  0  0  0
  6 11  1  0  0  0
  9 12  1  0  0  0
 12 13  2  0  0  0
 13 14  1  0  0  0
 12 15  1  0  0  0
 15 16  1  0  0  0
  8 16  1  0  0  0
 14 17  1  0  0  0
M  END
> <minimizedAffinity>
-8.38234

$$$$
mol_91896028_6


 30 34  0  0  0  0  0  0  0  0999 V2000
   -0.5241   -1.2222   10.1383 N   0  0  0  0  0  0  0  0  0  0  0  0
   -0.2147   -4.1040    7.0620 C   0  0  0  0  0  0  0  0  0  0  0  0
   -0.2925   -3.1240    8.1144 C   0  0  0  0  0  0  0  0  0  0  0  0
   -1.5628   -2.5425    8.4644 C   0  0  0  0  0  0  0  0  0  0  0  0
   -1.6380   -1.5947    9.4822 N   0  0  0  0  0  0  0  0  0  0  0  0
    0.9660   -2.7031    8.8556 C   0  0  0  0  0  0  0  0  0  0  0  0
    2.5271   -7.6241    9.4145 C   0  0  0  0  0  0  0  0  0  0  0  0
    3.7162   -8.3695    9.7377 C   0  0  0  0  0  0  0  0  0  0  0  0
    2.9784   -5.9371    8.7516 C   0  0  0  0  0  0  0  0  0  0  0  0
    1.9101   -4.9920    8.5521 C   0  0  0  0  0  0  0  0  0  0  0  0
    2.0343   -3.6482    9.0551 C   0  0  0  0  0  0  0  0  0  0  0  0
    4.2369   -5.5163    9.4929 C   0  0  0  0  0  0  0  0  0  0  0  0
    4.3503   -4.2887    9.9523 N   0  0  0  0  0  0  0  0  0  0  0  0
    3.3341   -3.3897    9.7626 O   0  0  0  0  0  0  0  0  0  0  0  0
    5.3644   -6.5137    9.7034 C   0  0  0  0  0  0  0  0  0  0  0  0
    4.8484   -7.7009   10.5002 C   0  0  0  0  0  0  0  0  0  0  0  0
    3.4203   -2.4566   10.1118 H   0  0  0  0  0  0  0  0  0  0  0  0
    0.3706   -3.4464   12.1752 C   0  0  0  0  0  0  0  0  0  0  0  0
   -1.0634   -2.9470   12.1064 C   0  0  0  0  0  0  0  0  0  0  0  0
   -0.0186    1.7269    9.8757 C   0  0  0  0  0  0  0  0  0  0  0  0
   -1.0010    1.1244   10.8666 C   0  0  0  0  0  0  0  0  0  0  0  0
   -0.6008   -0.2558   11.1759 N   0  0  0  0  0  0  0  0  0  0  0  0
   -0.2800   -0.6356   12.5593 C   0  0  0  0  0  0  0  0  0  0  0  0
   -1.2229   -1.7379   13.0137 C   0  0  0  0  0  0  0  0  0  0  0  0
   -2.8213   -2.9633    7.7232 C   0  0  0  0  0  0  0  0  0  0  0  0
   -5.5936   -1.3974    5.7805 C   0  0  0  0  0  0  0  0  0  0  0  0
   -5.2242   -0.0067    5.8403 C   0  0  0  0  0  0  0  0  0  0  0  0
   -4.0708    0.3788    6.5194 N   0  0  0  0  0  0  0  0  0  0  0  0
   -3.2749   -0.5805    7.1406 C   0  0  0  0  0  0  0  0  0  0  0  0
   -3.6444   -1.9712    7.0809 C   0  0  0  0  0  0  0  0  0  0  0  0
 18 19  1  0  0  0
 19 20  1  0  0  0
 20 21  1  0  0  0
 21 22  1  0  0  0
 22 23  1  0  0  0
 23 24  1  0  0  0
 19 24  1  0  0  0
 22  1  1  0  0  0
  1  2  1  0  0  0
  2  3  2  0  0  0
  3  4  1  0  0  0
  4  5  2  0  0  0
  1  5  1  0  0  0
  4 25  1  0  0  0
 25 26  2  0  0  0
 26 27  1  0  0  0
 27 28  2  0  0  0
 28 29  1  0  0  0
 29 30  2  0  0  0
 25 30  1  0  0  0
  3  6  1  0  0  0
  6  7  2  0  0  0
  7  8  1  0  0  0
  8  9  2  0  0  0
  9 10  1  0  0  0
 10 11  2  0  0  0
  6 11  1  0  0  0
  9 12  1  0  0  0
 12 13  2  0  0  0
 13 14  1  0  0  0
 12 15  1  0  0  0
 15 16  1  0  0  0
  8 16  1  0  0  0
 14 17  1  0  0  0
M  END
> <minimizedAffinity>
-7.84584

$$$$
mol_11624965_7


 30 34  0  0  0  0  0  0  0  0999 V2000
    1.7595   -4.7918    8.6668 N   0  0  0  0  0  0  0  0  0  0  0  0
    0.0777   -1.2297   10.1991 C   0  0  0  0  0  0  0  0  0  0  0  0
    0.6250   -2.4537    9.6734 C   0  0  0  0  0  0  0  0  0  0  0  0
    2.0518   -2.6160    9.5640 C   0  0  0  0  0  0  0  0  0  0  0  0
    2.5811   -3.7999    9.0556 N   0  0  0  0  0  0  0  0  0  0  0  0
   -0.3033   -3.5744    9.2342 C   0  0  0  0  0  0  0  0  0  0  0  0
   -3.7156   -0.2272    7.2050 C   0  0  0  0  0  0  0  0  0  0  0  0
   -4.8364   -0.2137    6.3007 C   0  0  0  0  0  0  0  0  0  0  0  0
   -2.6208   -1.7006    6.8598 C   0  0  0  0  0  0  0  0  0  0  0  0
   -1.5551   -1.9713    7.7899 C   0  0  0  0  0  0  0  0  0  0  0  0
   -1.3689   -3.3037    8.3040 C   0  0  0  0  0  0  0  0  0  0  0  0
   -3.5491   -2.8213    6.4205 C   0  0  0  0  0  0  0  0  0  0  0  0
   -3.3790   -4.0385    6.8901 N   0  0  0  0  0  0  0  0  0  0  0  0
   -2.3653   -4.2959    7.7750 O   0  0  0  0  0  0  0  0  0  0  0  0
   -4.6737   -2.5357    5.4387 C   0  0  0  0  0  0  0  0  0  0  0  0
   -5.6097   -1.4939    6.0296 C   0  0  0  0  0  0  0  0  0  0  0  0
   -2.2360   -5.2210    8.1318 H   0  0  0  0  0  0  0  0  0  0  0  0
    1.8521   -3.4435    5.8261 C   0  0  0  0  0  0  0  0  0  0  0  0
    0.8141   -4.4941    6.1856 C   0  0  0  0  0  0  0  0  0  0  0  0
    3.5063   -6.7447   10.1351 C   0  0  0  0  0  0  0  0  0  0  0  0
    2.5294   -7.1437    9.0411 C   0  0  0  0  0  0  0  0  0  0  0  0
    2.2991   -5.9986    8.1486 N   0  0  0  0  0  0  0  0  0  0  0  0
    2.6272   -6.1030    6.7195 C   0  0  0  0  0  0  0  0  0  0  0  0
    1.3713   -5.8778    5.8934 C   0  0  0  0  0  0  0  0  0  0  0  0
    2.9801   -1.4954   10.0033 C   0  0  0  0  0  0  0  0  0  0  0  0
    5.3285   -0.7250   12.7966 C   0  0  0  0  0  0  0  0  0  0  0  0
    5.2104   -1.9172   13.5960 C   0  0  0  0  0  0  0  0  0  0  0  0
    4.3598   -2.9441   13.1935 N   0  0  0  0  0  0  0  0  0  0  0  0
    3.6234   -2.8180   12.0180 C   0  0  0  0  0  0  0  0  0  0  0  0
    3.7415   -1.6257   11.2187 C   0  0  0  0  0  0  0  0  0  0  0  0
 18 19  1  0  0  0
 19 20  1  0  0  0
 20 21  1  0  0  0
 21 22  1  0  0  0
 22 23  1  0  0  0
 23 24  1  0  0  0
 19 24  1  0  0  0
 22  1  1  0  0  0
  1  2  1  0  0  0
  2  3  2  0  0  0
  3  4  1  0  0  0
  4  5  2  0  0  0
  1  5  1  0  0  0
  4 25  1  0  0  0
 25 26  2  0  0  0
 26 27  1  0  0  0
 27 28  2  0  0  0
 28 29  1  0  0  0
 29 30  2  0  0  0
 25 30  1  0  0  0
  3  6  1  0  0  0
  6  7  2  0  0  0
  7  8  1  0  0  0
  8  9  2  0  0  0
  9 10  1  0  0  0
 10 11  2  0  0  0
  6 11  1  0  0  0
  9 12  1  0  0  0
 12 13  2  0  0  0
 13 14  1  0  0  0
 12 15  1  0  0  0
 15 16  1  0  0  0
  8 16  1  0  0  0
 14 17  1  0  0  0
M  END
> <minimizedAffinity>
-8.46207

$$$$
mol_11624965_7


 30 34  0  0  0  0  0  0  0  0999 V2000
    1.8278   -2.0463   10.7895 N   0  0  0  0  0  0  0  0  0  0  0  0
   -2.3381   -1.3366   10.7101 C   0  0  0  0  0  0  0  0  0  0  0  0
   -0.9235   -1.6057   10.7333 C   0  0  0  0  0  0  0  0  0  0  0  0
    0.0121   -0.5259   10.9146 C   0  0  0  0  0  0  0  0  0  0  0  0
    1.3802   -0.7861   10.9370 N   0  0  0  0  0  0  0  0  0  0  0  0
   -0.4178   -3.0294   10.5665 C   0  0  0  0  0  0  0  0  0  0  0  0
   -1.5788   -3.0652    5.5053 C   0  0  0  0  0  0  0  0  0  0  0  0
   -1.2800   -3.8188    4.3149 C   0  0  0  0  0  0  0  0  0  0  0  0
   -0.2214   -3.2836    6.7697 C   0  0  0  0  0  0  0  0  0  0  0  0
   -0.4466   -2.7493    8.0879 C   0  0  0  0  0  0  0  0  0  0  0  0
   -0.1927   -3.5638    9.2483 C   0  0  0  0  0  0  0  0  0  0  0  0
    0.2843   -4.7074    6.6029 C   0  0  0  0  0  0  0  0  0  0  0  0
    0.5163   -5.4515    7.6628 N   0  0  0  0  0  0  0  0  0  0  0  0
    0.3020   -4.9431    8.9169 O   0  0  0  0  0  0  0  0  0  0  0  0
    0.5220   -5.2714    5.2116 C   0  0  0  0  0  0  0  0  0  0  0  0
   -0.7796   -5.2497    4.4269 C   0  0  0  0  0  0  0  0  0  0  0  0
    0.4784   -5.5086    9.7225 H   0  0  0  0  0  0  0  0  0  0  0  0
    1.4742   -3.2619   13.6693 C   0  0  0  0  0  0  0  0  0  0  0  0
    2.1107   -1.9003   13.4423 C   0  0  0  0  0  0  0  0  0  0  0  0
    3.5642   -2.6896    8.4246 C   0  0  0  0  0  0  0  0  0  0  0  0
    4.0583   -1.9513    9.6580 C   0  0  0  0  0  0  0  0  0  0  0  0
    3.2225   -2.3116   10.8123 N   0  0  0  0  0  0  0  0  0  0  0  0
    3.8307   -2.9466   11.9904 C   0  0  0  0  0  0  0  0  0  0  0  0
    3.6035   -2.0710   13.2119 C   0  0  0  0  0  0  0  0  0  0  0  0
   -0.4936    0.8979   11.0813 C   0  0  0  0  0  0  0  0  0  0  0  0
   -1.2462    3.3084   13.8262 C   0  0  0  0  0  0  0  0  0  0  0  0
   -0.9143    2.5217   14.9859 C   0  0  0  0  0  0  0  0  0  0  0  0
   -0.4509    1.2172   14.8332 N   0  0  0  0  0  0  0  0  0  0  0  0
   -0.3087    0.6734   13.5588 C   0  0  0  0  0  0  0  0  0  0  0  0
   -0.6407    1.4601   12.3990 C   0  0  0  0  0  0  0  0  0  0  0  0
 18 19  1  0  0  0
 19 20  1  0  0  0
 20 21  1  0  0  0
 21 22  1  0  0  0
 22 23  1  0  0  0
 23 24  1  0  0  0
 19 24  1  0  0  0
 22  1  1  0  0  0
  1  2  1  0  0  0
  2  3  2  0  0  0
  3  4  1  0  0  0
  4  5  2  0  0  0
  1  5  1  0  0  0
  4 25  1  0  0  0
 25 26  2  0  0  0
 26 27  1  0  0  0
 27 28  2  0  0  0
 28 29  1  0  0  0
 29 30  2  0  0  0
 25 30  1  0  0  0
  3  6  1  0  0  0
  6  7  2  0  0  0
  7  8  1  0  0  0
  8  9  2  0  0  0
  9 10  1  0  0  0
 10 11  2  0  0  0
  6 11  1  0  0  0
  9 12  1  0  0  0
 12 13  2  0  0  0
 13 14  1  0  0  0
 12 15  1  0  0  0
 15 16  1  0  0  0
  8 16  1  0  0  0
 14 17  1  0  0  0
M  END
> <minimizedAffinity>
-8.37011

$$$$
mol_11624965_7


 30 34  0  0  0  0  0  0  0  0999 V2000
   -0.5238   -1.2509   10.1812 N   0  0  0  0  0  0  0  0  0  0  0  0
   -0.1519   -4.1428    7.1212 C   0  0  0  0  0  0  0  0  0  0  0  0
   -0.2512   -3.1593    8.1685 C   0  0  0  0  0  0  0  0  0  0  0  0
   -1.5281   -2.5763    8.4903 C   0  0  0  0  0  0  0  0  0  0  0  0
   -1.6240   -1.6251    9.5033 N   0  0  0  0  0  0  0  0  0  0  0  0
    0.9919   -2.7365    8.9343 C   0  0  0  0  0  0  0  0  0  0  0  0
    2.5831   -7.6509    9.4662 C   0  0  0  0  0  0  0  0  0  0  0  0
    3.7729   -8.3903    9.8005 C   0  0  0  0  0  0  0  0  0  0  0  0
    3.0314   -5.9535    8.8285 C   0  0  0  0  0  0  0  0  0  0  0  0
    1.9591   -5.0147    8.6219 C   0  0  0  0  0  0  0  0  0  0  0  0
    2.0643   -3.6753    9.1409 C   0  0  0  0  0  0  0  0  0  0  0  0
    4.2745   -5.5308    9.5944 C   0  0  0  0  0  0  0  0  0  0  0  0
    4.3708   -4.3073   10.0685 N   0  0  0  0  0  0  0  0  0  0  0  0
    3.3506   -3.4142    9.8720 O   0  0  0  0  0  0  0  0  0  0  0  0
    5.4065   -6.5215    9.8124 C   0  0  0  0  0  0  0  0  0  0  0  0
    4.8874   -7.7211   10.5883 C   0  0  0  0  0  0  0  0  0  0  0  0
    3.4238   -2.4843   10.2323 H   0  0  0  0  0  0  0  0  0  0  0  0
    0.4115   -3.4469   12.2304 C   0  0  0  0  0  0  0  0  0  0  0  0
   -1.0320   -2.9765   12.1568 C   0  0  0  0  0  0  0  0  0  0  0  0
   -0.0767    1.7063    9.9047 C   0  0  0  0  0  0  0  0  0  0  0  0
   -1.0488    1.0892   10.8971 C   0  0  0  0  0  0  0  0  0  0  0  0
   -0.6215   -0.2813   11.2138 N   0  0  0  0  0  0  0  0  0  0  0  0
   -0.2957   -0.6478   12.5995 C   0  0  0  0  0  0  0  0  0  0  0  0
   -1.2171   -1.7664   13.0579 C   0  0  0  0  0  0  0  0  0  0  0  0
   -2.7713   -2.9990    7.7244 C   0  0  0  0  0  0  0  0  0  0  0  0
   -5.5549   -1.4299    5.8009 C   0  0  0  0  0  0  0  0  0  0  0  0
   -5.2133   -0.0347    5.9054 C   0  0  0  0  0  0  0  0  0  0  0  0
   -4.0742    0.3527    6.6071 N   0  0  0  0  0  0  0  0  0  0  0  0
   -3.2656   -0.6092    7.2078 C   0  0  0  0  0  0  0  0  0  0  0  0
   -3.6073   -2.0044    7.1033 C   0  0  0  0  0  0  0  0  0  0  0  0
 18 19  1  0  0  0
 19 20  1  0  0  0
 20 21  1  0  0  0
 21 22  1  0  0  0
 22 23  1  0  0  0
 23 24  1  0  0  0
 19 24  1  0  0  0
 22  1  1  0  0  0
  1  2  1  0  0  0
  2  3  2  0  0  0
  3  4  1  0  0  0
  4  5  2  0  0  0
  1  5  1  0  0  0
  4 25  1  0  0  0
 25 26  2  0  0  0
 26 27  1  0  0  0
 27 28  2  0  0  0
 28 29  1  0  0  0
 29 30  2  0  0  0
 25 30  1  0  0  0
  3  6  1  0  0  0
  6  7  2  0  0  0
  7  8  1  0  0  0
  8  9  2  0  0  0
  9 10  1  0  0  0
 10 11  2  0  0  0
  6 11  1  0  0  0
  9 12  1  0  0  0
 12 13  2  0  0  0
 13 14  1  0  0  0
 12 15  1  0  0  0
 15 16  1  0  0  0
  8 16  1  0  0  0
 14 17  1  0  0  0
M  END
> <minimizedAffinity>
-7.85688

$$$$
mol_54586539_8


 30 34  0  0  0  0  0  0  0  0999 V2000
    1.7664   -4.7917    8.6614 N   0  0  0  0  0  0  0  0  0  0  0  0
    0.0728   -1.2437   10.2133 C   0  0  0  0  0  0  0  0  0  0  0  0
    0.6242   -2.4631    9.6811 C   0  0  0  0  0  0  0  0  0  0  0  0
    2.0513   -2.6173    9.5644 C   0  0  0  0  0  0  0  0  0  0  0  0
    2.5846   -3.7965    9.0496 N   0  0  0  0  0  0  0  0  0  0  0  0
   -0.3001   -3.5872    9.2425 C   0  0  0  0  0  0  0  0  0  0  0  0
   -3.7242   -0.2534    7.2112 C   0  0  0  0  0  0  0  0  0  0  0  0
   -4.8452   -0.2444    6.3071 C   0  0  0  0  0  0  0  0  0  0  0  0
   -2.6242   -1.7232    6.8670 C   0  0  0  0  0  0  0  0  0  0  0  0
   -1.5576   -1.9895    7.7974 C   0  0  0  0  0  0  0  0  0  0  0  0
   -1.3667   -3.3209    8.3122 C   0  0  0  0  0  0  0  0  0  0  0  0
   -3.5485   -2.8473    6.4284 C   0  0  0  0  0  0  0  0  0  0  0  0
   -3.3741   -4.0636    6.8987 N   0  0  0  0  0  0  0  0  0  0  0  0
   -2.3595   -4.3170    7.7837 O   0  0  0  0  0  0  0  0  0  0  0  0
   -4.6742   -2.5663    5.4464 C   0  0  0  0  0  0  0  0  0  0  0  0
   -5.6139   -1.5275    6.0367 C   0  0  0  0  0  0  0  0  0  0  0  0
   -2.2269   -5.2415    8.1411 H   0  0  0  0  0  0  0  0  0  0  0  0
    1.8304   -3.4366    5.8233 C   0  0  0  0  0  0  0  0  0  0  0  0
    0.8017   -4.4946    6.1876 C   0  0  0  0  0  0  0  0  0  0  0  0
    3.5362   -6.7366   10.1131 C   0  0  0  0  0  0  0  0  0  0  0  0
    2.5542   -7.1394    9.0250 C   0  0  0  0  0  0  0  0  0  0  0  0
    2.3101   -5.9939    8.1367 N   0  0  0  0  0  0  0  0  0  0  0  0
    2.6290   -6.0930    6.7051 C   0  0  0  0  0  0  0  0  0  0  0  0
    1.3658   -5.8740    5.8884 C   0  0  0  0  0  0  0  0  0  0  0  0
    2.9756   -1.4932   10.0029 C   0  0  0  0  0  0  0  0  0  0  0  0
    5.3523   -0.7301   12.7743 C   0  0  0  0  0  0  0  0  0  0  0  0
    5.2542   -1.9309   13.5634 C   0  0  0  0  0  0  0  0  0  0  0  0
    4.4071   -2.9610   13.1615 N   0  0  0  0  0  0  0  0  0  0  0  0
    3.6552   -2.8297   11.9965 C   0  0  0  0  0  0  0  0  0  0  0  0
    3.7534   -1.6289   11.2075 C   0  0  0  0  0  0  0  0  0  0  0  0
 18 19  1  0  0  0
 19 20  1  0  0  0
 20 21  1  0  0  0
 21 22  1  0  0  0
 22 23  1  0  0  0
 23 24  1  0  0  0
 19 24  1  0  0  0
 22  1  1  0  0  0
  1  2  1  0  0  0
  2  3  2  0  0  0
  3  4  1  0  0  0
  4  5  2  0  0  0
  1  5  1  0  0  0
  4 25  1  0  0  0
 25 26  2  0  0  0
 26 27  1  0  0  0
 27 28  2  0  0  0
 28 29  1  0  0  0
 29 30  2  0  0  0
 25 30  1  0  0  0
  3  6  1  0  0  0
  6  7  2  0  0  0
  7  8  1  0  0  0
  8  9  2  0  0  0
  9 10  1  0  0  0
 10 11  2  0  0  0
  6 11  1  0  0  0
  9 12  1  0  0  0
 12 13  2  0  0  0
 13 14  1  0  0  0
 12 15  1  0  0  0
 15 16  1  0  0  0
  8 16  1  0  0  0
 14 17  1  0  0  0
M  END
> <minimizedAffinity>
-8.49303

$$$$
mol_54586539_8


 30 34  0  0  0  0  0  0  0  0999 V2000
    1.7633   -2.0789   10.7121 N   0  0  0  0  0  0  0  0  0  0  0  0
   -2.3876   -1.2822   10.7168 C   0  0  0  0  0  0  0  0  0  0  0  0
   -0.9787   -1.5809   10.7117 C   0  0  0  0  0  0  0  0  0  0  0  0
   -0.0171   -0.5195   10.8628 C   0  0  0  0  0  0  0  0  0  0  0  0
    1.3455   -0.8082   10.8579 N   0  0  0  0  0  0  0  0  0  0  0  0
   -0.5066   -3.0163   10.5470 C   0  0  0  0  0  0  0  0  0  0  0  0
   -1.6140   -3.0126    5.4736 C   0  0  0  0  0  0  0  0  0  0  0  0
   -1.3214   -3.7709    4.2847 C   0  0  0  0  0  0  0  0  0  0  0  0
   -0.2760   -3.2673    6.7519 C   0  0  0  0  0  0  0  0  0  0  0  0
   -0.5020   -2.7303    8.0690 C   0  0  0  0  0  0  0  0  0  0  0  0
   -0.2807   -3.5533    9.2299 C   0  0  0  0  0  0  0  0  0  0  0  0
    0.1960   -4.7026    6.5870 C   0  0  0  0  0  0  0  0  0  0  0  0
    0.3983   -5.4545    7.6476 N   0  0  0  0  0  0  0  0  0  0  0  0
    0.1833   -4.9437    8.9005 O   0  0  0  0  0  0  0  0  0  0  0  0
    0.4346   -5.2695    5.1970 C   0  0  0  0  0  0  0  0  0  0  0  0
   -0.8577   -5.2140    4.3986 C   0  0  0  0  0  0  0  0  0  0  0  0
    0.3370   -5.5152    9.7066 H   0  0  0  0  0  0  0  0  0  0  0  0
    1.4685   -3.1627   13.6504 C   0  0  0  0  0  0  0  0  0  0  0  0
    2.1261   -1.8263   13.3471 C   0  0  0  0  0  0  0  0  0  0  0  0
    3.4169   -2.8601    8.3293 C   0  0  0  0  0  0  0  0  0  0  0  0
    3.9616   -2.0807    9.5152 C   0  0  0  0  0  0  0  0  0  0  0  0
    3.1525   -2.3733   10.7071 N   0  0  0  0  0  0  0  0  0  0  0  0
    3.7814   -2.9707   11.8939 C   0  0  0  0  0  0  0  0  0  0  0  0
    3.6077   -2.0391   13.0824 C   0  0  0  0  0  0  0  0  0  0  0  0
   -0.4891    0.9159   11.0275 C   0  0  0  0  0  0  0  0  0  0  0  0
   -1.2017    3.3417   13.7698 C   0  0  0  0  0  0  0  0  0  0  0  0
   -0.8968    2.5461   14.9309 C   0  0  0  0  0  0  0  0  0  0  0  0
   -0.4644    1.2307   14.7799 N   0  0  0  0  0  0  0  0  0  0  0  0
   -0.3266    0.6849   13.5060 C   0  0  0  0  0  0  0  0  0  0  0  0
   -0.6314    1.4805   12.3448 C   0  0  0  0  0  0  0  0  0  0  0  0
 18 19  1  0  0  0
 19 20  1  0  0  0
 20 21  1  0  0  0
 21 22  1  0  0  0
 22 23  1  0  0  0
 23 24  1  0  0  0
 19 24  1  0  0  0
 22  1  1  0  0  0
  1  2  1  0  0  0
  2  3  2  0  0  0
  3  4  1  0  0  0
  4  5  2  0  0  0
  1  5  1  0  0  0
  4 25  1  0  0  0
 25 26  2  0  0  0
 26 27  1  0  0  0
 27 28  2  0  0  0
 28 29  1  0  0  0
 29 30  2  0  0  0
 25 30  1  0  0  0
  3  6  1  0  0  0
  6  7  2  0  0  0
  7  8  1  0  0  0
  8  9  2  0  0  0
  9 10  1  0  0  0
 10 11  2  0  0  0
  6 11  1  0  0  0
  9 12  1  0  0  0
 12 13  2  0  0  0
 13 14  1  0  0  0
 12 15  1  0  0  0
 15 16  1  0  0  0
  8 16  1  0  0  0
 14 17  1  0  0  0
M  END
> <minimizedAffinity>
-8.39588

$$$$
mol_54586539_8


 30 34  0  0  0  0  0  0  0  0999 V2000
   -0.5369   -1.2320   10.1398 N   0  0  0  0  0  0  0  0  0  0  0  0
   -0.2227   -4.1083    7.0588 C   0  0  0  0  0  0  0  0  0  0  0  0
   -0.3022   -3.1303    8.1129 C   0  0  0  0  0  0  0  0  0  0  0  0
   -1.5724   -2.5462    8.4590 C   0  0  0  0  0  0  0  0  0  0  0  0
   -1.6493   -1.6002    9.4783 N   0  0  0  0  0  0  0  0  0  0  0  0
    0.9543   -2.7143    8.8601 C   0  0  0  0  0  0  0  0  0  0  0  0
    2.4963   -7.6410    9.4216 C   0  0  0  0  0  0  0  0  0  0  0  0
    3.6814   -8.3907    9.7495 C   0  0  0  0  0  0  0  0  0  0  0  0
    2.9562   -5.9550    8.7623 C   0  0  0  0  0  0  0  0  0  0  0  0
    1.8921   -5.0061    8.5589 C   0  0  0  0  0  0  0  0  0  0  0  0
    2.0185   -3.6632    9.0635 C   0  0  0  0  0  0  0  0  0  0  0  0
    4.2128   -5.5391    9.5095 C   0  0  0  0  0  0  0  0  0  0  0  0
    4.3283   -4.3123    9.9705 N   0  0  0  0  0  0  0  0  0  0  0  0
    3.3160   -3.4096    9.7770 O   0  0  0  0  0  0  0  0  0  0  0  0
    5.3360   -6.5405    9.7242 C   0  0  0  0  0  0  0  0  0  0  0  0
    4.8125   -7.7266   10.5177 C   0  0  0  0  0  0  0  0  0  0  0  0
    3.4039   -2.4771   10.1274 H   0  0  0  0  0  0  0  0  0  0  0  0
    0.3521   -3.4607   12.1740 C   0  0  0  0  0  0  0  0  0  0  0  0
   -1.0814   -2.9603   12.1033 C   0  0  0  0  0  0  0  0  0  0  0  0
   -0.0293    1.7174    9.8840 C   0  0  0  0  0  0  0  0  0  0  0  0
   -1.0142    1.1134   10.8717 C   0  0  0  0  0  0  0  0  0  0  0  0
   -0.6154   -0.2676   11.1791 N   0  0  0  0  0  0  0  0  0  0  0  0
   -0.2977   -0.6503   12.5624 C   0  0  0  0  0  0  0  0  0  0  0  0
   -1.2421   -1.7530   13.0126 C   0  0  0  0  0  0  0  0  0  0  0  0
   -2.8289   -2.9621    7.7118 C   0  0  0  0  0  0  0  0  0  0  0  0
   -5.5996   -1.3828    5.7775 C   0  0  0  0  0  0  0  0  0  0  0  0
   -5.2320    0.0078    5.8502 C   0  0  0  0  0  0  0  0  0  0  0  0
   -4.0805    0.3889    6.5349 N   0  0  0  0  0  0  0  0  0  0  0  0
   -3.2845   -0.5749    7.1492 C   0  0  0  0  0  0  0  0  0  0  0  0
   -3.6521   -1.9655    7.0765 C   0  0  0  0  0  0  0  0  0  0  0  0
 18 19  1  0  0  0
 19 20  1  0  0  0
 20 21  1  0  0  0
 21 22  1  0  0  0
 22 23  1  0  0  0
 23 24  1  0  0  0
 19 24  1  0  0  0
 22  1  1  0  0  0
  1  2  1  0  0  0
  2  3  2  0  0  0
  3  4  1  0  0  0
  4  5  2  0  0  0
  1  5  1  0  0  0
  4 25  1  0  0  0
 25 26  2  0  0  0
 26 27  1  0  0  0
 27 28  2  0  0  0
 28 29  1  0  0  0
 29 30  2  0  0  0
 25 30  1  0  0  0
  3  6  1  0  0  0
  6  7  2  0  0  0
  7  8  1  0  0  0
  8  9  2  0  0  0
  9 10  1  0  0  0
 10 11  2  0  0  0
  6 11  1  0  0  0
  9 12  1  0  0  0
 12 13  2  0  0  0
 13 14  1  0  0  0
 12 15  1  0  0  0
 15 16  1  0  0  0
  8 16  1  0  0  0
 14 17  1  0  0  0
M  END
> <minimizedAffinity>
-7.86436

$$$$
mol_11717001_9


 30 34  0  0  0  0  0  0  0  0999 V2000
    1.7732   -4.7911    8.6980 N   0  0  0  0  0  0  0  0  0  0  0  0
    0.0239   -1.2428   10.1858 C   0  0  0  0  0  0  0  0  0  0  0  0
    0.5944   -2.4625    9.6750 C   0  0  0  0  0  0  0  0  0  0  0  0
    2.0247   -2.6092    9.5925 C   0  0  0  0  0  0  0  0  0  0  0  0
    2.5765   -3.7887    9.0983 N   0  0  0  0  0  0  0  0  0  0  0  0
   -0.3130   -3.5949    9.2228 C   0  0  0  0  0  0  0  0  0  0  0  0
   -3.7675   -0.2895    7.1963 C   0  0  0  0  0  0  0  0  0  0  0  0
   -4.8833   -0.2880    6.2857 C   0  0  0  0  0  0  0  0  0  0  0  0
   -2.6470   -1.7428    6.8477 C   0  0  0  0  0  0  0  0  0  0  0  0
   -1.5824   -2.0025    7.7822 C   0  0  0  0  0  0  0  0  0  0  0  0
   -1.3777   -3.3352    8.2882 C   0  0  0  0  0  0  0  0  0  0  0  0
   -3.5545   -2.8752    6.3954 C   0  0  0  0  0  0  0  0  0  0  0  0
   -3.3674   -4.0926    6.8577 N   0  0  0  0  0  0  0  0  0  0  0  0
   -2.3547   -4.3397    7.7467 O   0  0  0  0  0  0  0  0  0  0  0  0
   -4.6781   -2.6011    5.4091 C   0  0  0  0  0  0  0  0  0  0  0  0
   -5.6342   -1.5787    6.0015 C   0  0  0  0  0  0  0  0  0  0  0  0
   -2.2126   -5.2651    8.0981 H   0  0  0  0  0  0  0  0  0  0  0  0
    1.9096   -3.4497    5.8558 C   0  0  0  0  0  0  0  0  0  0  0  0
    0.8754   -4.5101    6.1973 C   0  0  0  0  0  0  0  0  0  0  0  0
    3.5101   -6.7218   10.2072 C   0  0  0  0  0  0  0  0  0  0  0  0
    2.5600   -7.1338    9.0947 C   0  0  0  0  0  0  0  0  0  0  0  0
    2.3357   -5.9938    8.1943 N   0  0  0  0  0  0  0  0  0  0  0  0
    2.6940   -6.0985    6.7724 C   0  0  0  0  0  0  0  0  0  0  0  0
    1.4528   -5.8886    5.9205 C   0  0  0  0  0  0  0  0  0  0  0  0
    2.9322   -1.4767   10.0446 C   0  0  0  0  0  0  0  0  0  0  0  0
    5.2298   -0.6760   12.8715 C   0  0  0  0  0  0  0  0  0  0  0  0
    5.1152   -1.8694   13.6696 C   0  0  0  0  0  0  0  0  0  0  0  0
    4.2836   -2.9070   13.2552 N   0  0  0  0  0  0  0  0  0  0  0  0
    3.5629   -2.7905   12.0692 C   0  0  0  0  0  0  0  0  0  0  0  0
    3.6774   -1.5972   11.2711 C   0  0  0  0  0  0  0  0  0  0  0  0
 18 19  1  0  0  0
 19 20  1  0  0  0
 20 21  1  0  0  0
 21 22  1  0  0  0
 22 23  1  0  0  0
 23 24  1  0  0  0
 19 24  1  0  0  0
 22  1  1  0  0  0
  1  2  1  0  0  0
  2  3  2  0  0  0
  3  4  1  0  0  0
  4  5  2  0  0  0
  1  5  1  0  0  0
  4 25  1  0  0  0
 25 26  2  0  0  0
 26 27  1  0  0  0
 27 28  2  0  0  0
 28 29  1  0  0  0
 29 30  2  0  0  0
 25 30  1  0  0  0
  3  6  1  0  0  0
  6  7  2  0  0  0
  7  8  1  0  0  0
  8  9  2  0  0  0
  9 10  1  0  0  0
 10 11  2  0  0  0
  6 11  1  0  0  0
  9 12  1  0  0  0
 12 13  2  0  0  0
 13 14  1  0  0  0
 12 15  1  0  0  0
 15 16  1  0  0  0
  8 16  1  0  0  0
 14 17  1  0  0  0
M  END
> <minimizedAffinity>
-8.48514

$$$$
mol_11717001_9


 30 34  0  0  0  0  0  0  0  0999 V2000
    1.8303   -2.0382   10.8027 N   0  0  0  0  0  0  0  0  0  0  0  0
   -2.3316   -1.3086   10.6990 C   0  0  0  0  0  0  0  0  0  0  0  0
   -0.9185   -1.5845   10.7305 C   0  0  0  0  0  0  0  0  0  0  0  0
    0.0211   -0.5091   10.9173 C   0  0  0  0  0  0  0  0  0  0  0  0
    1.3879   -0.7758   10.9477 N   0  0  0  0  0  0  0  0  0  0  0  0
   -0.4186   -3.0105   10.5667 C   0  0  0  0  0  0  0  0  0  0  0  0
   -1.5813   -3.0525    5.5059 C   0  0  0  0  0  0  0  0  0  0  0  0
   -1.2859   -3.8099    4.3171 C   0  0  0  0  0  0  0  0  0  0  0  0
   -0.2244   -3.2738    6.7704 C   0  0  0  0  0  0  0  0  0  0  0  0
   -0.4470   -2.7356    8.0876 C   0  0  0  0  0  0  0  0  0  0  0  0
   -0.1960   -3.5487    9.2495 C   0  0  0  0  0  0  0  0  0  0  0  0
    0.2754   -4.6999    6.6065 C   0  0  0  0  0  0  0  0  0  0  0  0
    0.5048   -5.4426    7.6679 N   0  0  0  0  0  0  0  0  0  0  0  0
    0.2931   -4.9307    8.9210 O   0  0  0  0  0  0  0  0  0  0  0  0
    0.5104   -5.2678    5.2163 C   0  0  0  0  0  0  0  0  0  0  0  0
   -0.7913   -5.2426    4.4320 C   0  0  0  0  0  0  0  0  0  0  0  0
    0.4673   -5.4953    9.7278 H   0  0  0  0  0  0  0  0  0  0  0  0
    1.4495   -3.2757   13.6697 C   0  0  0  0  0  0  0  0  0  0  0  0
    2.0940   -1.9154   13.4587 C   0  0  0  0  0  0  0  0  0  0  0  0
    3.5815   -2.6702    8.4457 C   0  0  0  0  0  0  0  0  0  0  0  0
    4.0697   -1.9444    9.6887 C   0  0  0  0  0  0  0  0  0  0  0  0
    3.2237   -2.3102   10.8338 N   0  0  0  0  0  0  0  0  0  0  0  0
    3.8201   -2.9577   12.0111 C   0  0  0  0  0  0  0  0  0  0  0  0
    3.5876   -2.0911   13.2380 C   0  0  0  0  0  0  0  0  0  0  0  0
   -0.4786    0.9170   11.0810 C   0  0  0  0  0  0  0  0  0  0  0  0
   -1.2331    3.3320   13.8215 C   0  0  0  0  0  0  0  0  0  0  0  0
   -0.9104    2.5442   14.9831 C   0  0  0  0  0  0  0  0  0  0  0  0
   -0.4525    1.2374   14.8330 N   0  0  0  0  0  0  0  0  0  0  0  0
   -0.3067    0.6926   13.5595 C   0  0  0  0  0  0  0  0  0  0  0  0
   -0.6294    1.4804   12.3979 C   0  0  0  0  0  0  0  0  0  0  0  0
 18 19  1  0  0  0
 19 20  1  0  0  0
 20 21  1  0  0  0
 21 22  1  0  0  0
 22 23  1  0  0  0
 23 24  1  0  0  0
 19 24  1  0  0  0
 22  1  1  0  0  0
  1  2  1  0  0  0
  2  3  2  0  0  0
  3  4  1  0  0  0
  4  5  2  0  0  0
  1  5  1  0  0  0
  4 25  1  0  0  0
 25 26  2  0  0  0
 26 27  1  0  0  0
 27 28  2  0  0  0
 28 29  1  0  0  0
 29 30  2  0  0  0
 25 30  1  0  0  0
  3  6  1  0  0  0
  6  7  2  0  0  0
  7  8  1  0  0  0
  8  9  2  0  0  0
  9 10  1  0  0  0
 10 11  2  0  0  0
  6 11  1  0  0  0
  9 12  1  0  0  0
 12 13  2  0  0  0
 13 14  1  0  0  0
 12 15  1  0  0  0
 15 16  1  0  0  0
  8 16  1  0  0  0
 14 17  1  0  0  0
M  END
> <minimizedAffinity>
-8.38481

$$$$
mol_11717001_9


 30 34  0  0  0  0  0  0  0  0999 V2000
    2.5695   -4.0736    8.3135 N   0  0  0  0  0  0  0  0  0  0  0  0
    0.6860   -1.9982   11.4774 C   0  0  0  0  0  0  0  0  0  0  0  0
    1.3061   -2.7231   10.3985 C   0  0  0  0  0  0  0  0  0  0  0  0
    2.5876   -2.3039    9.8921 C   0  0  0  0  0  0  0  0  0  0  0  0
    3.1873   -3.0048    8.8486 N   0  0  0  0  0  0  0  0  0  0  0  0
    0.6083   -3.9305    9.7940 C   0  0  0  0  0  0  0  0  0  0  0  0
   -3.2762   -1.0179    7.9519 C   0  0  0  0  0  0  0  0  0  0  0  0
   -4.3503   -1.0965    6.9957 C   0  0  0  0  0  0  0  0  0  0  0  0
   -1.9249   -2.2300    7.5114 C   0  0  0  0  0  0  0  0  0  0  0  0
   -0.8601   -2.4155    8.4632 C   0  0  0  0  0  0  0  0  0  0  0  0
   -0.4567   -3.7450    8.8422 C   0  0  0  0  0  0  0  0  0  0  0  0
   -2.6230   -3.4374    6.9069 C   0  0  0  0  0  0  0  0  0  0  0  0
   -2.2543   -4.6519    7.2531 N   0  0  0  0  0  0  0  0  0  0  0  0
   -1.2413   -4.8284    8.1585 O   0  0  0  0  0  0  0  0  0  0  0  0
   -3.7467   -3.2416    5.9024 C   0  0  0  0  0  0  0  0  0  0  0  0
   -4.8731   -2.4523    6.5496 C   0  0  0  0  0  0  0  0  0  0  0  0
   -0.9612   -5.7516    8.4218 H   0  0  0  0  0  0  0  0  0  0  0  0
    2.8723   -6.5398   10.2429 C   0  0  0  0  0  0  0  0  0  0  0  0
    4.0579   -5.6728    9.8517 C   0  0  0  0  0  0  0  0  0  0  0  0
    2.0067   -3.7430    5.3817 C   0  0  0  0  0  0  0  0  0  0  0  0
    3.3618   -4.1449    5.9404 C   0  0  0  0  0  0  0  0  0  0  0  0
    3.1809   -4.7883    7.2497 N   0  0  0  0  0  0  0  0  0  0  0  0
    3.6328   -6.1716    7.4576 C   0  0  0  0  0  0  0  0  0  0  0  0
    4.6718   -6.2039    8.5665 C   0  0  0  0  0  0  0  0  0  0  0  0
    3.2856   -1.0964   10.4965 C   0  0  0  0  0  0  0  0  0  0  0  0
    5.9266   -0.3511   13.0226 C   0  0  0  0  0  0  0  0  0  0  0  0
    6.2827   -1.6787   13.4526 C   0  0  0  0  0  0  0  0  0  0  0  0
    5.6431   -2.7851   12.8987 N   0  0  0  0  0  0  0  0  0  0  0  0
    4.6591   -2.6076   11.9291 C   0  0  0  0  0  0  0  0  0  0  0  0
    4.3030   -1.2800   11.4992 C   0  0  0  0  0  0  0  0  0  0  0  0
 18 19  1  0  0  0
 19 20  1  0  0  0
 20 21  1  0  0  0
 21 22  1  0  0  0
 22 23  1  0  0  0
 23 24  1  0  0  0
 19 24  1  0  0  0
 22  1  1  0  0  0
  1  2  1  0  0  0
  2  3  2  0  0  0
  3  4  1  0  0  0
  4  5  2  0  0  0
  1  5  1  0  0  0
  4 25  1  0  0  0
 25 26  2  0  0  0
 26 27  1  0  0  0
 27 28  2  0  0  0
 28 29  1  0  0  0
 29 30  2  0  0  0
 25 30  1  0  0  0
  3  6  1  0  0  0
  6  7  2  0  0  0
  7  8  1  0  0  0
  8  9  2  0  0  0
  9 10  1  0  0  0
 10 11  2  0  0  0
  6 11  1  0  0  0
  9 12  1  0  0  0
 12 13  2  0  0  0
 13 14  1  0  0  0
 12 15  1  0  0  0
 15 16  1  0  0  0
  8 16  1  0  0  0
 14 17  1  0  0  0
M  END
> <minimizedAffinity>
-7.95428

$$$$
mol_135438492_10


 30 34  0  0  0  0  0  0  0  0999 V2000
    1.7772   -4.7988    8.6926 N   0  0  0  0  0  0  0  0  0  0  0  0
    0.0775   -1.2337   10.1977 C   0  0  0  0  0  0  0  0  0  0  0  0
    0.6309   -2.4589    9.6813 C   0  0  0  0  0  0  0  0  0  0  0  0
    2.0587   -2.6169    9.5783 C   0  0  0  0  0  0  0  0  0  0  0  0
    2.5940   -3.8019    9.0788 N   0  0  0  0  0  0  0  0  0  0  0  0
   -0.2918   -3.5852    9.2450 C   0  0  0  0  0  0  0  0  0  0  0  0
   -3.7227   -0.2599    7.2110 C   0  0  0  0  0  0  0  0  0  0  0  0
   -4.8442   -0.2542    6.3075 C   0  0  0  0  0  0  0  0  0  0  0  0
   -2.6205   -1.7284    6.8682 C   0  0  0  0  0  0  0  0  0  0  0  0
   -1.5529   -1.9917    7.7982 C   0  0  0  0  0  0  0  0  0  0  0  0
   -1.3595   -3.3220    8.3149 C   0  0  0  0  0  0  0  0  0  0  0  0
   -3.5432   -2.8548    6.4319 C   0  0  0  0  0  0  0  0  0  0  0  0
   -3.3666   -4.0701    6.9039 N   0  0  0  0  0  0  0  0  0  0  0  0
   -2.3509   -4.3205    7.7886 O   0  0  0  0  0  0  0  0  0  0  0  0
   -4.6701   -2.5771    5.4503 C   0  0  0  0  0  0  0  0  0  0  0  0
   -5.6110   -1.5389    6.0396 C   0  0  0  0  0  0  0  0  0  0  0  0
   -2.2167   -5.2442    8.1473 H   0  0  0  0  0  0  0  0  0  0  0  0
    1.8925   -3.4609    5.8477 C   0  0  0  0  0  0  0  0  0  0  0  0
    0.8528   -4.5116    6.2022 C   0  0  0  0  0  0  0  0  0  0  0  0
    3.5140   -6.7439   10.1831 C   0  0  0  0  0  0  0  0  0  0  0  0
    2.5470   -7.1483    9.0821 C   0  0  0  0  0  0  0  0  0  0  0  0
    2.3228   -6.0068    8.1834 N   0  0  0  0  0  0  0  0  0  0  0  0
    2.6634   -6.1159    6.7576 C   0  0  0  0  0  0  0  0  0  0  0  0
    1.4143   -5.8955    5.9200 C   0  0  0  0  0  0  0  0  0  0  0  0
    2.9815   -1.4906   10.0145 C   0  0  0  0  0  0  0  0  0  0  0  0
    5.3218   -0.6989   12.8087 C   0  0  0  0  0  0  0  0  0  0  0  0
    5.2074   -1.8883   13.6127 C   0  0  0  0  0  0  0  0  0  0  0  0
    4.3619   -2.9204   13.2130 N   0  0  0  0  0  0  0  0  0  0  0  0
    3.6270   -2.8022   12.0357 C   0  0  0  0  0  0  0  0  0  0  0  0
    3.7414   -1.6128   11.2318 C   0  0  0  0  0  0  0  0  0  0  0  0
 18 19  1  0  0  0
 19 20  1  0  0  0
 20 21  1  0  0  0
 21 22  1  0  0  0
 22 23  1  0  0  0
 23 24  1  0  0  0
 19 24  1  0  0  0
 22  1  1  0  0  0
  1  2  1  0  0  0
  2  3  2  0  0  0
  3  4  1  0  0  0
  4  5  2  0  0  0
  1  5  1  0  0  0
  4 25  1  0  0  0
 25 26  2  0  0  0
 26 27  1  0  0  0
 27 28  2  0  0  0
 28 29  1  0  0  0
 29 30  2  0  0  0
 25 30  1  0  0  0
  3  6  1  0  0  0
  6  7  2  0  0  0
  7  8  1  0  0  0
  8  9  2  0  0  0
  9 10  1  0  0  0
 10 11  2  0  0  0
  6 11  1  0  0  0
  9 12  1  0  0  0
 12 13  2  0  0  0
 13 14  1  0  0  0
 12 15  1  0  0  0
 15 16  1  0  0  0
  8 16  1  0  0  0
 14 17  1  0  0  0
M  END
> <minimizedAffinity>
-8.47801

$$$$
mol_135438492_10


 30 34  0  0  0  0  0  0  0  0999 V2000
    1.8341   -2.0159   10.8079 N   0  0  0  0  0  0  0  0  0  0  0  0
   -2.3163   -1.2449   10.5981 C   0  0  0  0  0  0  0  0  0  0  0  0
   -0.9072   -1.5348   10.6655 C   0  0  0  0  0  0  0  0  0  0  0  0
    0.0373   -0.4700   10.8853 C   0  0  0  0  0  0  0  0  0  0  0  0
    1.4001   -0.7504   10.9504 N   0  0  0  0  0  0  0  0  0  0  0  0
   -0.4169   -2.9645   10.5046 C   0  0  0  0  0  0  0  0  0  0  0  0
   -1.5994   -3.0163    5.4485 C   0  0  0  0  0  0  0  0  0  0  0  0
   -1.3134   -3.7796    4.2611 C   0  0  0  0  0  0  0  0  0  0  0  0
   -0.2391   -3.2417    6.7084 C   0  0  0  0  0  0  0  0  0  0  0  0
   -0.4532   -2.6978    8.0246 C   0  0  0  0  0  0  0  0  0  0  0  0
   -0.2027   -3.5085    9.1883 C   0  0  0  0  0  0  0  0  0  0  0  0
    0.2513   -4.6714    6.5475 C   0  0  0  0  0  0  0  0  0  0  0  0
    0.4801   -5.4120    7.6106 N   0  0  0  0  0  0  0  0  0  0  0  0
    0.2764   -4.8945    8.8626 O   0  0  0  0  0  0  0  0  0  0  0  0
    0.4774   -5.2456    5.1584 C   0  0  0  0  0  0  0  0  0  0  0  0
   -0.8273   -5.2149    4.3790 C   0  0  0  0  0  0  0  0  0  0  0  0
    0.4504   -5.4574    9.6706 H   0  0  0  0  0  0  0  0  0  0  0  0
    1.3520   -3.3397   13.6206 C   0  0  0  0  0  0  0  0  0  0  0  0
    2.0143   -1.9795   13.4734 C   0  0  0  0  0  0  0  0  0  0  0  0
    3.6539   -2.5897    8.4883 C   0  0  0  0  0  0  0  0  0  0  0  0
    4.1085   -1.9079    9.7686 C   0  0  0  0  0  0  0  0  0  0  0  0
    3.2234   -2.3018   10.8742 N   0  0  0  0  0  0  0  0  0  0  0  0
    3.7766   -2.9917   12.0485 C   0  0  0  0  0  0  0  0  0  0  0  0
    3.5126   -2.1621   13.2945 C   0  0  0  0  0  0  0  0  0  0  0  0
   -0.4530    0.9597   11.0462 C   0  0  0  0  0  0  0  0  0  0  0  0
   -1.2026    3.3815   13.7819 C   0  0  0  0  0  0  0  0  0  0  0  0
   -0.8907    2.5921   14.9454 C   0  0  0  0  0  0  0  0  0  0  0  0
   -0.4414    1.2820   14.7980 N   0  0  0  0  0  0  0  0  0  0  0  0
   -0.2937    0.7354   13.5254 C   0  0  0  0  0  0  0  0  0  0  0  0
   -0.6056    1.5248   12.3620 C   0  0  0  0  0  0  0  0  0  0  0  0
 18 19  1  0  0  0
 19 20  1  0  0  0
 20 21  1  0  0  0
 21 22  1  0  0  0
 22 23  1  0  0  0
 23 24  1  0  0  0
 19 24  1  0  0  0
 22  1  1  0  0  0
  1  2  1  0  0  0
  2  3  2  0  0  0
  3  4  1  0  0  0
  4  5  2  0  0  0
  1  5  1  0  0  0
  4 25  1  0  0  0
 25 26  2  0  0  0
 26 27  1  0  0  0
 27 28  2  0  0  0
 28 29  1  0  0  0
 29 30  2  0  0  0
 25 30  1  0  0  0
  3  6  1  0  0  0
  6  7  2  0  0  0
  7  8  1  0  0  0
  8  9  2  0  0  0
  9 10  1  0  0  0
 10 11  2  0  0  0
  6 11  1  0  0  0
  9 12  1  0  0  0
 12 13  2  0  0  0
 13 14  1  0  0  0
 12 15  1  0  0  0
 15 16  1  0  0  0
  8 16  1  0  0  0
 14 17  1  0  0  0
M  END
> <minimizedAffinity>
-8.36764

$$$$
mol_135438492_10


 30 34  0  0  0  0  0  0  0  0999 V2000
    2.5194   -4.1535    8.2308 N   0  0  0  0  0  0  0  0  0  0  0  0
    0.6965   -2.0591   11.4175 C   0  0  0  0  0  0  0  0  0  0  0  0
    1.2959   -2.7903   10.3312 C   0  0  0  0  0  0  0  0  0  0  0  0
    2.5720   -2.3799    9.8044 C   0  0  0  0  0  0  0  0  0  0  0  0
    3.1516   -3.0871    8.7537 N   0  0  0  0  0  0  0  0  0  0  0  0
    0.5817   -3.9951    9.7405 C   0  0  0  0  0  0  0  0  0  0  0  0
   -3.2920   -1.0588    7.9137 C   0  0  0  0  0  0  0  0  0  0  0  0
   -4.3751   -1.1336    6.9674 C   0  0  0  0  0  0  0  0  0  0  0  0
   -1.9558   -2.2858    7.4691 C   0  0  0  0  0  0  0  0  0  0  0  0
   -0.8844   -2.4751    8.4128 C   0  0  0  0  0  0  0  0  0  0  0  0
   -0.4896   -3.8059    8.7968 C   0  0  0  0  0  0  0  0  0  0  0  0
   -2.6698   -3.4906    6.8784 C   0  0  0  0  0  0  0  0  0  0  0  0
   -2.3093   -4.7063    7.2292 N   0  0  0  0  0  0  0  0  0  0  0  0
   -1.2901   -4.8863    8.1269 O   0  0  0  0  0  0  0  0  0  0  0  0
   -3.8006   -3.2909    5.8825 C   0  0  0  0  0  0  0  0  0  0  0  0
   -4.9140   -2.4873    6.5344 C   0  0  0  0  0  0  0  0  0  0  0  0
   -1.0160   -5.8103    8.3934 H   0  0  0  0  0  0  0  0  0  0  0  0
    2.6288   -6.6862   10.0934 C   0  0  0  0  0  0  0  0  0  0  0  0
    3.8733   -5.8828    9.7524 C   0  0  0  0  0  0  0  0  0  0  0  0
    2.0440   -3.7077    5.2988 C   0  0  0  0  0  0  0  0  0  0  0  0
    3.3596   -4.2070    5.8737 C   0  0  0  0  0  0  0  0  0  0  0  0
    3.1103   -4.8743    7.1596 N   0  0  0  0  0  0  0  0  0  0  0  0
    3.4728   -6.2879    7.3366 C   0  0  0  0  0  0  0  0  0  0  0  0
    4.4828   -6.4145    8.4655 C   0  0  0  0  0  0  0  0  0  0  0  0
    3.2861   -1.1751   10.3951 C   0  0  0  0  0  0  0  0  0  0  0  0
    5.9515   -0.4377   12.8976 C   0  0  0  0  0  0  0  0  0  0  0  0
    6.2973   -1.7655   13.3351 C   0  0  0  0  0  0  0  0  0  0  0  0
    5.6429   -2.8695   12.7940 N   0  0  0  0  0  0  0  0  0  0  0  0
    4.6542   -2.6893   11.8296 C   0  0  0  0  0  0  0  0  0  0  0  0
    4.3085   -1.3615   11.3921 C   0  0  0  0  0  0  0  0  0  0  0  0
 18 19  1  0  0  0
 19 20  1  0  0  0
 20 21  1  0  0  0
 21 22  1  0  0  0
 22 23  1  0  0  0
 23 24  1  0  0  0
 19 24  1  0  0  0
 22  1  1  0  0  0
  1  2  1  0  0  0
  2  3  2  0  0  0
  3  4  1  0  0  0
  4  5  2  0  0  0
  1  5  1  0  0  0
  4 25  1  0  0  0
 25 26  2  0  0  0
 26 27  1  0  0  0
 27 28  2  0  0  0
 28 29  1  0  0  0
 29 30  2  0  0  0
 25 30  1  0  0  0
  3  6  1  0  0  0
  6  7  2  0  0  0
  7  8  1  0  0  0
  8  9  2  0  0  0
  9 10  1  0  0  0
 10 11  2  0  0  0
  6 11  1  0  0  0
  9 12  1  0  0  0
 12 13  2  0  0  0
 13 14  1  0  0  0
 12 15  1  0  0  0
 15 16  1  0  0  0
  8 16  1  0  0  0
 14 17  1  0  0  0
M  END
> <minimizedAffinity>
-7.97567

$$$$
mol_89659642_11


 30 34  0  0  0  0  0  0  0  0999 V2000
    1.7591   -4.7976    8.6832 N   0  0  0  0  0  0  0  0  0  0  0  0
    0.0249   -1.2502   10.1905 C   0  0  0  0  0  0  0  0  0  0  0  0
    0.5902   -2.4696    9.6731 C   0  0  0  0  0  0  0  0  0  0  0  0
    2.0198   -2.6185    9.5816 C   0  0  0  0  0  0  0  0  0  0  0  0
    2.5666   -3.7977    9.0812 N   0  0  0  0  0  0  0  0  0  0  0  0
   -0.3219   -3.5993    9.2234 C   0  0  0  0  0  0  0  0  0  0  0  0
   -3.7676   -0.2837    7.1986 C   0  0  0  0  0  0  0  0  0  0  0  0
   -4.8847   -0.2791    6.2896 C   0  0  0  0  0  0  0  0  0  0  0  0
   -2.6527   -1.7412    6.8497 C   0  0  0  0  0  0  0  0  0  0  0  0
   -1.5877   -2.0038    7.7829 C   0  0  0  0  0  0  0  0  0  0  0  0
   -1.3869   -3.3367    8.2901 C   0  0  0  0  0  0  0  0  0  0  0  0
   -3.5649   -2.8710    6.4001 C   0  0  0  0  0  0  0  0  0  0  0  0
   -3.3815   -4.0886    6.8634 N   0  0  0  0  0  0  0  0  0  0  0  0
   -2.3683   -4.3384    7.7511 O   0  0  0  0  0  0  0  0  0  0  0  0
   -4.6890   -2.5939    5.4152 C   0  0  0  0  0  0  0  0  0  0  0  0
   -5.6405   -1.5675    6.0079 C   0  0  0  0  0  0  0  0  0  0  0  0
   -2.2289   -5.2638    8.1032 H   0  0  0  0  0  0  0  0  0  0  0  0
    1.8934   -3.4445    5.8464 C   0  0  0  0  0  0  0  0  0  0  0  0
    0.8565   -4.5030    6.1857 C   0  0  0  0  0  0  0  0  0  0  0  0
    3.4932   -6.7405   10.1800 C   0  0  0  0  0  0  0  0  0  0  0  0
    2.5391   -7.1447    9.0679 C   0  0  0  0  0  0  0  0  0  0  0  0
    2.3165   -5.9999    8.1730 N   0  0  0  0  0  0  0  0  0  0  0  0
    2.6711   -6.0998    6.7499 C   0  0  0  0  0  0  0  0  0  0  0  0
    1.4287   -5.8822    5.9017 C   0  0  0  0  0  0  0  0  0  0  0  0
    2.9319   -1.4887   10.0313 C   0  0  0  0  0  0  0  0  0  0  0  0
    5.2225   -0.6854   12.8632 C   0  0  0  0  0  0  0  0  0  0  0  0
    5.0978   -1.8737   13.6673 C   0  0  0  0  0  0  0  0  0  0  0  0
    4.2621   -2.9090   13.2552 N   0  0  0  0  0  0  0  0  0  0  0  0
    3.5468   -2.7949   12.0655 C   0  0  0  0  0  0  0  0  0  0  0  0
    3.6715   -1.6066   11.2614 C   0  0  0  0  0  0  0  0  0  0  0  0
 18 19  1  0  0  0
 19 20  1  0  0  0
 20 21  1  0  0  0
 21 22  1  0  0  0
 22 23  1  0  0  0
 23 24  1  0  0  0
 19 24  1  0  0  0
 22  1  1  0  0  0
  1  2  1  0  0  0
  2  3  2  0  0  0
  3  4  1  0  0  0
  4  5  2  0  0  0
  1  5  1  0  0  0
  4 25  1  0  0  0
 25 26  2  0  0  0
 26 27  1  0  0  0
 27 28  2  0  0  0
 28 29  1  0  0  0
 29 30  2  0  0  0
 25 30  1  0  0  0
  3  6  1  0  0  0
  6  7  2  0  0  0
  7  8  1  0  0  0
  8  9  2  0  0  0
  9 10  1  0  0  0
 10 11  2  0  0  0
  6 11  1  0  0  0
  9 12  1  0  0  0
 12 13  2  0  0  0
 13 14  1  0  0  0
 12 15  1  0  0  0
 15 16  1  0  0  0
  8 16  1  0  0  0
 14 17  1  0  0  0
M  END
> <minimizedAffinity>
-8.45194

$$$$
mol_89659642_11


 30 34  0  0  0  0  0  0  0  0999 V2000
    1.8334   -2.0369   10.7982 N   0  0  0  0  0  0  0  0  0  0  0  0
   -2.3309   -1.3241   10.6791 C   0  0  0  0  0  0  0  0  0  0  0  0
   -0.9168   -1.5943   10.7158 C   0  0  0  0  0  0  0  0  0  0  0  0
    0.0177   -0.5155   10.9088 C   0  0  0  0  0  0  0  0  0  0  0  0
    1.3853   -0.7767   10.9443 N   0  0  0  0  0  0  0  0  0  0  0  0
   -0.4105   -3.0179   10.5506 C   0  0  0  0  0  0  0  0  0  0  0  0
   -1.5784   -3.0626    5.4910 C   0  0  0  0  0  0  0  0  0  0  0  0
   -1.2809   -3.8179    4.3015 C   0  0  0  0  0  0  0  0  0  0  0  0
   -0.2191   -3.2781    6.7539 C   0  0  0  0  0  0  0  0  0  0  0  0
   -0.4428   -2.7417    8.0716 C   0  0  0  0  0  0  0  0  0  0  0  0
   -0.1868   -3.5543    9.2329 C   0  0  0  0  0  0  0  0  0  0  0  0
    0.2871   -4.7018    6.5887 C   0  0  0  0  0  0  0  0  0  0  0  0
    0.5211   -5.4441    7.6495 N   0  0  0  0  0  0  0  0  0  0  0  0
    0.3083   -4.9338    8.9031 O   0  0  0  0  0  0  0  0  0  0  0  0
    0.5232   -5.2679    5.1980 C   0  0  0  0  0  0  0  0  0  0  0  0
   -0.7795   -5.2483    4.4151 C   0  0  0  0  0  0  0  0  0  0  0  0
    0.4861   -5.4979    9.7093 H   0  0  0  0  0  0  0  0  0  0  0  0
    1.4444   -3.2914   13.6566 C   0  0  0  0  0  0  0  0  0  0  0  0
    2.0842   -1.9273   13.4560 C   0  0  0  0  0  0  0  0  0  0  0  0
    3.5983   -2.6490    8.4460 C   0  0  0  0  0  0  0  0  0  0  0  0
    4.0776   -1.9278    9.6953 C   0  0  0  0  0  0  0  0  0  0  0  0
    3.2277   -2.3033   10.8343 N   0  0  0  0  0  0  0  0  0  0  0  0
    3.8213   -2.9546   12.0109 C   0  0  0  0  0  0  0  0  0  0  0  0
    3.5796   -2.0956   13.2414 C   0  0  0  0  0  0  0  0  0  0  0  0
   -0.4887    0.9082   11.0739 C   0  0  0  0  0  0  0  0  0  0  0  0
   -1.2474    3.3198   13.8163 C   0  0  0  0  0  0  0  0  0  0  0  0
   -0.9175    2.5336   14.9770 C   0  0  0  0  0  0  0  0  0  0  0  0
   -0.4534    1.2291   14.8257 N   0  0  0  0  0  0  0  0  0  0  0  0
   -0.3086    0.6849   13.5518 C   0  0  0  0  0  0  0  0  0  0  0  0
   -0.6385    1.4710   12.3911 C   0  0  0  0  0  0  0  0  0  0  0  0
 18 19  1  0  0  0
 19 20  1  0  0  0
 20 21  1  0  0  0
 21 22  1  0  0  0
 22 23  1  0  0  0
 23 24  1  0  0  0
 19 24  1  0  0  0
 22  1  1  0  0  0
  1  2  1  0  0  0
  2  3  2  0  0  0
  3  4  1  0  0  0
  4  5  2  0  0  0
  1  5  1  0  0  0
  4 25  1  0  0  0
 25 26  2  0  0  0
 26 27  1  0  0  0
 27 28  2  0  0  0
 28 29  1  0  0  0
 29 30  2  0  0  0
 25 30  1  0  0  0
  3  6  1  0  0  0
  6  7  2  0  0  0
  7  8  1  0  0  0
  8  9  2  0  0  0
  9 10  1  0  0  0
 10 11  2  0  0  0
  6 11  1  0  0  0
  9 12  1  0  0  0
 12 13  2  0  0  0
 13 14  1  0  0  0
 12 15  1  0  0  0
 15 16  1  0  0  0
  8 16  1  0  0  0
 14 17  1  0  0  0
M  END
> <minimizedAffinity>
-8.36038

$$$$
mol_89659642_11


 30 34  0  0  0  0  0  0  0  0999 V2000
    2.1481   -4.0232    8.1096 N   0  0  0  0  0  0  0  0  0  0  0  0
    0.5731   -2.0782   11.5155 C   0  0  0  0  0  0  0  0  0  0  0  0
    1.0878   -2.7584   10.3552 C   0  0  0  0  0  0  0  0  0  0  0  0
    2.3253   -2.3272    9.7577 C   0  0  0  0  0  0  0  0  0  0  0  0
    2.8233   -2.9850    8.6355 N   0  0  0  0  0  0  0  0  0  0  0  0
    0.3252   -3.9312    9.7610 C   0  0  0  0  0  0  0  0  0  0  0  0
   -3.3790   -0.8244    7.8655 C   0  0  0  0  0  0  0  0  0  0  0  0
   -4.4514   -0.8529    6.9048 C   0  0  0  0  0  0  0  0  0  0  0  0
   -2.0968   -2.1162    7.4459 C   0  0  0  0  0  0  0  0  0  0  0  0
   -1.0486   -2.3508    8.4052 C   0  0  0  0  0  0  0  0  0  0  0  0
   -0.7231   -3.6967    8.8016 C   0  0  0  0  0  0  0  0  0  0  0  0
   -2.8596   -3.2891    6.8517 C   0  0  0  0  0  0  0  0  0  0  0  0
   -2.5623   -4.5185    7.2137 N   0  0  0  0  0  0  0  0  0  0  0  0
   -1.5651   -4.7417    8.1263 O   0  0  0  0  0  0  0  0  0  0  0  0
   -3.9660   -3.0416    5.8392 C   0  0  0  0  0  0  0  0  0  0  0  0
   -5.0484   -2.1820    6.4715 C   0  0  0  0  0  0  0  0  0  0  0  0
   -1.3391   -5.6761    8.4015 H   0  0  0  0  0  0  0  0  0  0  0  0
    2.7189   -6.5292    9.9235 C   0  0  0  0  0  0  0  0  0  0  0  0
    3.8337   -5.6213    9.4300 C   0  0  0  0  0  0  0  0  0  0  0  0
    1.2592   -3.6324    5.2672 C   0  0  0  0  0  0  0  0  0  0  0  0
    2.6767   -4.0125    5.6631 C   0  0  0  0  0  0  0  0  0  0  0  0
    2.6557   -4.6938    6.9655 N   0  0  0  0  0  0  0  0  0  0  0  0
    3.1602   -6.0695    7.0835 C   0  0  0  0  0  0  0  0  0  0  0  0
    4.3152   -6.1027    8.0711 C   0  0  0  0  0  0  0  0  0  0  0  0
    3.0881   -1.1544   10.3519 C   0  0  0  0  0  0  0  0  0  0  0  0
    5.8139   -0.5376   12.8221 C   0  0  0  0  0  0  0  0  0  0  0  0
    6.1216   -1.8816   13.2379 C   0  0  0  0  0  0  0  0  0  0  0  0
    5.4228   -2.9564   12.6933 N   0  0  0  0  0  0  0  0  0  0  0  0
    4.4262   -2.7312   11.7467 C   0  0  0  0  0  0  0  0  0  0  0  0
    4.1185   -1.3871   11.3308 C   0  0  0  0  0  0  0  0  0  0  0  0
 18 19  1  0  0  0
 19 20  1  0  0  0
 20 21  1  0  0  0
 21 22  1  0  0  0
 22 23  1  0  0  0
 23 24  1  0  0  0
 19 24  1  0  0  0
 22  1  1  0  0  0
  1  2  1  0  0  0
  2  3  2  0  0  0
  3  4  1  0  0  0
  4  5  2  0  0  0
  1  5  1  0  0  0
  4 25  1  0  0  0
 25 26  2  0  0  0
 26 27  1  0  0  0
 27 28  2  0  0  0
 28 29  1  0  0  0
 29 30  2  0  0  0
 25 30  1  0  0  0
  3  6  1  0  0  0
  6  7  2  0  0  0
  7  8  1  0  0  0
  8  9  2  0  0  0
  9 10  1  0  0  0
 10 11  2  0  0  0
  6 11  1  0  0  0
  9 12  1  0  0  0
 12 13  2  0  0  0
 13 14  1  0  0  0
 12 15  1  0  0  0
 15 16  1  0  0  0
  8 16  1  0  0  0
 14 17  1  0  0  0
M  END
> <minimizedAffinity>
-7.97924

$$$$
mol_44587235_12


 30 34  0  0  0  0  0  0  0  0999 V2000
    1.7787   -4.8113    8.7174 N   0  0  0  0  0  0  0  0  0  0  0  0
    0.0577   -1.2460   10.1976 C   0  0  0  0  0  0  0  0  0  0  0  0
    0.6184   -2.4713    9.6895 C   0  0  0  0  0  0  0  0  0  0  0  0
    2.0474   -2.6260    9.5987 C   0  0  0  0  0  0  0  0  0  0  0  0
    2.5897   -3.8111    9.1073 N   0  0  0  0  0  0  0  0  0  0  0  0
   -0.2979   -3.6012    9.2491 C   0  0  0  0  0  0  0  0  0  0  0  0
   -3.7422   -0.2886    7.2174 C   0  0  0  0  0  0  0  0  0  0  0  0
   -4.8623   -0.2863    6.3121 C   0  0  0  0  0  0  0  0  0  0  0  0
   -2.6321   -1.7507    6.8729 C   0  0  0  0  0  0  0  0  0  0  0  0
   -1.5646   -2.0106    7.8040 C   0  0  0  0  0  0  0  0  0  0  0  0
   -1.3653   -3.3412    8.3179 C   0  0  0  0  0  0  0  0  0  0  0  0
   -3.5484   -2.8806    6.4324 C   0  0  0  0  0  0  0  0  0  0  0  0
   -3.3664   -4.0961    6.9018 N   0  0  0  0  0  0  0  0  0  0  0  0
   -2.3509   -4.3435    7.7875 O   0  0  0  0  0  0  0  0  0  0  0  0
   -4.6750   -2.6063    5.4496 C   0  0  0  0  0  0  0  0  0  0  0  0
   -5.6222   -1.5743    6.0399 C   0  0  0  0  0  0  0  0  0  0  0  0
   -2.2125   -5.2674    8.1443 H   0  0  0  0  0  0  0  0  0  0  0  0
    1.9067   -3.4845    5.8679 C   0  0  0  0  0  0  0  0  0  0  0  0
    0.8684   -4.5373    6.2203 C   0  0  0  0  0  0  0  0  0  0  0  0
    3.5130   -6.7444   10.2262 C   0  0  0  0  0  0  0  0  0  0  0  0
    2.5542   -7.1565    9.1211 C   0  0  0  0  0  0  0  0  0  0  0  0
    2.3315   -6.0195    8.2164 N   0  0  0  0  0  0  0  0  0  0  0  0
    2.6811   -6.1333    6.7932 C   0  0  0  0  0  0  0  0  0  0  0  0
    1.4364   -5.9205    5.9470 C   0  0  0  0  0  0  0  0  0  0  0  0
    2.9638   -1.4961   10.0391 C   0  0  0  0  0  0  0  0  0  0  0  0
    5.2599   -0.6799   12.8629 C   0  0  0  0  0  0  0  0  0  0  0  0
    5.1320   -1.8618   13.6758 C   0  0  0  0  0  0  0  0  0  0  0  0
    4.2923   -2.8971   13.2723 N   0  0  0  0  0  0  0  0  0  0  0  0
    3.5762   -2.7895   12.0824 C   0  0  0  0  0  0  0  0  0  0  0  0
    3.7042   -1.6075   11.2695 C   0  0  0  0  0  0  0  0  0  0  0  0
 18 19  1  0  0  0
 19 20  1  0  0  0
 20 21  1  0  0  0
 21 22  1  0  0  0
 22 23  1  0  0  0
 23 24  1  0  0  0
 19 24  1  0  0  0
 22  1  1  0  0  0
  1  2  1  0  0  0
  2  3  2  0  0  0
  3  4  1  0  0  0
  4  5  2  0  0  0
  1  5  1  0  0  0
  4 25  1  0  0  0
 25 26  2  0  0  0
 26 27  1  0  0  0
 27 28  2  0  0  0
 28 29  1  0  0  0
 29 30  2  0  0  0
 25 30  1  0  0  0
  3  6  1  0  0  0
  6  7  2  0  0  0
  7  8  1  0  0  0
  8  9  2  0  0  0
  9 10  1  0  0  0
 10 11  2  0  0  0
  6 11  1  0  0  0
  9 12  1  0  0  0
 12 13  2  0  0  0
 13 14  1  0  0  0
 12 15  1  0  0  0
 15 16  1  0  0  0
  8 16  1  0  0  0
 14 17  1  0  0  0
M  END
> <minimizedAffinity>
-8.48048

$$$$
mol_44587235_12


 30 34  0  0  0  0  0  0  0  0999 V2000
    1.8235   -2.0525   10.7817 N   0  0  0  0  0  0  0  0  0  0  0  0
   -2.3357   -1.3037   10.7086 C   0  0  0  0  0  0  0  0  0  0  0  0
   -0.9236   -1.5861   10.7298 C   0  0  0  0  0  0  0  0  0  0  0  0
    0.0224   -0.5150   10.9091 C   0  0  0  0  0  0  0  0  0  0  0  0
    1.3880   -0.7882   10.9295 N   0  0  0  0  0  0  0  0  0  0  0  0
   -0.4317   -3.0145   10.5628 C   0  0  0  0  0  0  0  0  0  0  0  0
   -1.5856   -3.0354    5.4998 C   0  0  0  0  0  0  0  0  0  0  0  0
   -1.2926   -3.7912    4.3094 C   0  0  0  0  0  0  0  0  0  0  0  0
   -0.2322   -3.2681    6.7661 C   0  0  0  0  0  0  0  0  0  0  0  0
   -0.4541   -2.7324    8.0843 C   0  0  0  0  0  0  0  0  0  0  0  0
   -0.2098   -3.5502    9.2444 C   0  0  0  0  0  0  0  0  0  0  0  0
    0.2597   -4.6965    6.5989 C   0  0  0  0  0  0  0  0  0  0  0  0
    0.4829   -5.4436    7.6587 N   0  0  0  0  0  0  0  0  0  0  0  0
    0.2719   -4.9341    8.9128 O   0  0  0  0  0  0  0  0  0  0  0  0
    0.4939   -5.2619    5.2076 C   0  0  0  0  0  0  0  0  0  0  0  0
   -0.8064   -5.2270    4.4211 C   0  0  0  0  0  0  0  0  0  0  0  0
    0.4415   -5.5019    9.7183 H   0  0  0  0  0  0  0  0  0  0  0  0
    1.4645   -3.2555   13.6662 C   0  0  0  0  0  0  0  0  0  0  0  0
    2.1135   -1.9008   13.4335 C   0  0  0  0  0  0  0  0  0  0  0  0
    3.5486   -2.7201    8.4153 C   0  0  0  0  0  0  0  0  0  0  0  0
    4.0523   -1.9825    9.6452 C   0  0  0  0  0  0  0  0  0  0  0  0
    3.2158   -2.3311   10.8025 N   0  0  0  0  0  0  0  0  0  0  0  0
    3.8204   -2.9680   11.9813 C   0  0  0  0  0  0  0  0  0  0  0  0
    3.6041   -2.0864   13.2005 C   0  0  0  0  0  0  0  0  0  0  0  0
   -0.4695    0.9135   11.0761 C   0  0  0  0  0  0  0  0  0  0  0  0
   -1.2064    3.3279   13.8219 C   0  0  0  0  0  0  0  0  0  0  0  0
   -0.8858    2.5364   14.9816 C   0  0  0  0  0  0  0  0  0  0  0  0
   -0.4351    1.2275   14.8286 N   0  0  0  0  0  0  0  0  0  0  0  0
   -0.2944    0.6839   13.5539 C   0  0  0  0  0  0  0  0  0  0  0  0
   -0.6150    1.4754   12.3942 C   0  0  0  0  0  0  0  0  0  0  0  0
 18 19  1  0  0  0
 19 20  1  0  0  0
 20 21  1  0  0  0
 21 22  1  0  0  0
 22 23  1  0  0  0
 23 24  1  0  0  0
 19 24  1  0  0  0
 22  1  1  0  0  0
  1  2  1  0  0  0
  2  3  2  0  0  0
  3  4  1  0  0  0
  4  5  2  0  0  0
  1  5  1  0  0  0
  4 25  1  0  0  0
 25 26  2  0  0  0
 26 27  1  0  0  0
 27 28  2  0  0  0
 28 29  1  0  0  0
 29 30  2  0  0  0
 25 30  1  0  0  0
  3  6  1  0  0  0
  6  7  2  0  0  0
  7  8  1  0  0  0
  8  9  2  0  0  0
  9 10  1  0  0  0
 10 11  2  0  0  0
  6 11  1  0  0  0
  9 12  1  0  0  0
 12 13  2  0  0  0
 13 14  1  0  0  0
 12 15  1  0  0  0
 15 16  1  0  0  0
  8 16  1  0  0  0
 14 17  1  0  0  0
M  END
> <minimizedAffinity>
-8.38824

$$$$
mol_44587235_12


 30 34  0  0  0  0  0  0  0  0999 V2000
   -0.5128   -1.2376   10.1792 N   0  0  0  0  0  0  0  0  0  0  0  0
   -0.1479   -4.1254    7.1146 C   0  0  0  0  0  0  0  0  0  0  0  0
   -0.2447   -3.1432    8.1634 C   0  0  0  0  0  0  0  0  0  0  0  0
   -1.5222   -2.5661    8.4939 C   0  0  0  0  0  0  0  0  0  0  0  0
   -1.6157   -1.6162    9.5082 N   0  0  0  0  0  0  0  0  0  0  0  0
    1.0014   -2.7155    8.9214 C   0  0  0  0  0  0  0  0  0  0  0  0
    2.6208   -7.6226    9.4341 C   0  0  0  0  0  0  0  0  0  0  0  0
    3.8165   -8.3566    9.7592 C   0  0  0  0  0  0  0  0  0  0  0  0
    3.0563   -5.9219    8.7964 C   0  0  0  0  0  0  0  0  0  0  0  0
    1.9778   -4.9882    8.5986 C   0  0  0  0  0  0  0  0  0  0  0  0
    2.0799   -3.6492    9.1191 C   0  0  0  0  0  0  0  0  0  0  0  0
    4.3024   -5.4942    9.5544 C   0  0  0  0  0  0  0  0  0  0  0  0
    4.3958   -4.2711   10.0299 N   0  0  0  0  0  0  0  0  0  0  0  0
    3.3699   -3.3828    9.8418 O   0  0  0  0  0  0  0  0  0  0  0  0
    5.4408   -6.4797    9.7631 C   0  0  0  0  0  0  0  0  0  0  0  0
    4.9330   -7.6831   10.5405 C   0  0  0  0  0  0  0  0  0  0  0  0
    3.4408   -2.4531   10.2032 H   0  0  0  0  0  0  0  0  0  0  0  0
    0.4385   -3.4329   12.2217 C   0  0  0  0  0  0  0  0  0  0  0  0
   -1.0067   -2.9663   12.1557 C   0  0  0  0  0  0  0  0  0  0  0  0
   -0.0750    1.7211    9.9034 C   0  0  0  0  0  0  0  0  0  0  0  0
   -1.0404    1.1005   10.8999 C   0  0  0  0  0  0  0  0  0  0  0  0
   -0.6081   -0.2691   11.2133 N   0  0  0  0  0  0  0  0  0  0  0  0
   -0.2745   -0.6360   12.5970 C   0  0  0  0  0  0  0  0  0  0  0  0
   -1.1906   -1.7576   13.0588 C   0  0  0  0  0  0  0  0  0  0  0  0
   -2.7684   -2.9938    7.7359 C   0  0  0  0  0  0  0  0  0  0  0  0
   -5.5559   -1.4375    5.8073 C   0  0  0  0  0  0  0  0  0  0  0  0
   -5.2118   -0.0420    5.8982 C   0  0  0  0  0  0  0  0  0  0  0  0
   -4.0699    0.3499    6.5928 N   0  0  0  0  0  0  0  0  0  0  0  0
   -3.2607   -0.6078    7.1995 C   0  0  0  0  0  0  0  0  0  0  0  0
   -3.6050   -2.0034    7.1086 C   0  0  0  0  0  0  0  0  0  0  0  0
 18 19  1  0  0  0
 19 20  1  0  0  0
 20 21  1  0  0  0
 21 22  1  0  0  0
 22 23  1  0  0  0
 23 24  1  0  0  0
 19 24  1  0  0  0
 22  1  1  0  0  0
  1  2  1  0  0  0
  2  3  2  0  0  0
  3  4  1  0  0  0
  4  5  2  0  0  0
  1  5  1  0  0  0
  4 25  1  0  0  0
 25 26  2  0  0  0
 26 27  1  0  0  0
 27 28  2  0  0  0
 28 29  1  0  0  0
 29 30  2  0  0  0
 25 30  1  0  0  0
  3  6  1  0  0  0
  6  7  2  0  0  0
  7  8  1  0  0  0
  8  9  2  0  0  0
  9 10  1  0  0  0
 10 11  2  0  0  0
  6 11  1  0  0  0
  9 12  1  0  0  0
 12 13  2  0  0  0
 13 14  1  0  0  0
 12 15  1  0  0  0
 15 16  1  0  0  0
  8 16  1  0  0  0
 14 17  1  0  0  0
M  END
> <minimizedAffinity>
-7.85226

$$$$
mol_60146017_13


 30 34  0  0  0  0  0  0  0  0999 V2000
    1.7653   -4.8002    8.6971 N   0  0  0  0  0  0  0  0  0  0  0  0
    0.0495   -1.2393   10.1940 C   0  0  0  0  0  0  0  0  0  0  0  0
    0.6085   -2.4631    9.6801 C   0  0  0  0  0  0  0  0  0  0  0  0
    2.0373   -2.6208    9.5916 C   0  0  0  0  0  0  0  0  0  0  0  0
    2.5778   -3.8042    9.0946 N   0  0  0  0  0  0  0  0  0  0  0  0
   -0.3096   -3.5883    9.2311 C   0  0  0  0  0  0  0  0  0  0  0  0
   -3.7479   -0.2553    7.2225 C   0  0  0  0  0  0  0  0  0  0  0  0
   -4.8677   -0.2446    6.3169 C   0  0  0  0  0  0  0  0  0  0  0  0
   -2.6400   -1.7167    6.8678 C   0  0  0  0  0  0  0  0  0  0  0  0
   -1.5732   -1.9852    7.7973 C   0  0  0  0  0  0  0  0  0  0  0  0
   -1.3764   -3.3198    8.3015 C   0  0  0  0  0  0  0  0  0  0  0  0
   -3.5581   -2.8420    6.4189 C   0  0  0  0  0  0  0  0  0  0  0  0
   -3.3781   -4.0612    6.8794 N   0  0  0  0  0  0  0  0  0  0  0  0
   -2.3634   -4.3165    7.7637 O   0  0  0  0  0  0  0  0  0  0  0  0
   -4.6839   -2.5586    5.4377 C   0  0  0  0  0  0  0  0  0  0  0  0
   -5.6295   -1.5294    6.0352 C   0  0  0  0  0  0  0  0  0  0  0  0
   -2.2266   -5.2432    8.1138 H   0  0  0  0  0  0  0  0  0  0  0  0
    1.9222   -3.4503    5.8601 C   0  0  0  0  0  0  0  0  0  0  0  0
    0.8763   -4.5010    6.1953 C   0  0  0  0  0  0  0  0  0  0  0  0
    3.4785   -6.7541   10.2035 C   0  0  0  0  0  0  0  0  0  0  0  0
    2.5267   -7.1523    9.0872 C   0  0  0  0  0  0  0  0  0  0  0  0
    2.3165   -6.0068    8.1905 N   0  0  0  0  0  0  0  0  0  0  0  0
    2.6770   -6.1102    6.7690 C   0  0  0  0  0  0  0  0  0  0  0  0
    1.4400   -5.8845    5.9150 C   0  0  0  0  0  0  0  0  0  0  0  0
    2.9553   -1.4956   10.0406 C   0  0  0  0  0  0  0  0  0  0  0  0
    5.2503   -0.7026   12.8719 C   0  0  0  0  0  0  0  0  0  0  0  0
    5.1195   -1.8898   13.6768 C   0  0  0  0  0  0  0  0  0  0  0  0
    4.2782   -2.9208   13.2654 N   0  0  0  0  0  0  0  0  0  0  0  0
    3.5635   -2.8038   12.0756 C   0  0  0  0  0  0  0  0  0  0  0  0
    3.6944   -1.6166   11.2709 C   0  0  0  0  0  0  0  0  0  0  0  0
 18 19  1  0  0  0
 19 20  1  0  0  0
 20 21  1  0  0  0
 21 22  1  0  0  0
 22 23  1  0  0  0
 23 24  1  0  0  0
 19 24  1  0  0  0
 22  1  1  0  0  0
  1  2  1  0  0  0
  2  3  2  0  0  0
  3  4  1  0  0  0
  4  5  2  0  0  0
  1  5  1  0  0  0
  4 25  1  0  0  0
 25 26  2  0  0  0
 26 27  1  0  0  0
 27 28  2  0  0  0
 28 29  1  0  0  0
 29 30  2  0  0  0
 25 30  1  0  0  0
  3  6  1  0  0  0
  6  7  2  0  0  0
  7  8  1  0  0  0
  8  9  2  0  0  0
  9 10  1  0  0  0
 10 11  2  0  0  0
  6 11  1  0  0  0
  9 12  1  0  0  0
 12 13  2  0  0  0
 13 14  1  0  0  0
 12 15  1  0  0  0
 15 16  1  0  0  0
  8 16  1  0  0  0
 14 17  1  0  0  0
M  END
> <minimizedAffinity>
-8.46514

$$$$
mol_60146017_13


 30 34  0  0  0  0  0  0  0  0999 V2000
    1.8743   -2.0373   10.7996 N   0  0  0  0  0  0  0  0  0  0  0  0
   -2.2907   -1.3252   10.6951 C   0  0  0  0  0  0  0  0  0  0  0  0
   -0.8763   -1.5951   10.7269 C   0  0  0  0  0  0  0  0  0  0  0  0
    0.0588   -0.5158   10.9134 C   0  0  0  0  0  0  0  0  0  0  0  0
    1.4265   -0.7768   10.9441 N   0  0  0  0  0  0  0  0  0  0  0  0
   -0.3705   -3.0192   10.5637 C   0  0  0  0  0  0  0  0  0  0  0  0
   -1.5502   -3.0751    5.5069 C   0  0  0  0  0  0  0  0  0  0  0  0
   -1.2555   -3.8333    4.3184 C   0  0  0  0  0  0  0  0  0  0  0  0
   -0.1880   -3.2880    6.7672 C   0  0  0  0  0  0  0  0  0  0  0  0
   -0.4086   -2.7486    8.0843 C   0  0  0  0  0  0  0  0  0  0  0  0
   -0.1500   -3.5586    9.2466 C   0  0  0  0  0  0  0  0  0  0  0  0
    0.3178   -4.7122    6.6041 C   0  0  0  0  0  0  0  0  0  0  0  0
    0.5541   -5.4520    7.6660 N   0  0  0  0  0  0  0  0  0  0  0  0
    0.3442   -4.9388    8.9188 O   0  0  0  0  0  0  0  0  0  0  0  0
    0.5506   -5.2814    5.2141 C   0  0  0  0  0  0  0  0  0  0  0  0
   -0.7539   -5.2634    4.4341 C   0  0  0  0  0  0  0  0  0  0  0  0
    0.5239   -5.5012    9.7260 H   0  0  0  0  0  0  0  0  0  0  0  0
    1.5000   -3.2652   13.6715 C   0  0  0  0  0  0  0  0  0  0  0  0
    2.1387   -1.9031   13.4550 C   0  0  0  0  0  0  0  0  0  0  0  0
    3.6269   -2.6711    8.4441 C   0  0  0  0  0  0  0  0  0  0  0  0
    4.1127   -1.9385    9.6842 C   0  0  0  0  0  0  0  0  0  0  0  0
    3.2688   -2.3033   10.8310 N   0  0  0  0  0  0  0  0  0  0  0  0
    3.8684   -2.9438   12.0106 C   0  0  0  0  0  0  0  0  0  0  0  0
    3.6329   -2.0735   13.2343 C   0  0  0  0  0  0  0  0  0  0  0  0
   -0.4471    0.9083   11.0766 C   0  0  0  0  0  0  0  0  0  0  0  0
   -1.2164    3.3198   13.8162 C   0  0  0  0  0  0  0  0  0  0  0  0
   -0.8926    2.5330   14.9782 C   0  0  0  0  0  0  0  0  0  0  0  0
   -0.4291    1.2281   14.8287 N   0  0  0  0  0  0  0  0  0  0  0  0
   -0.2788    0.6841   13.5553 C   0  0  0  0  0  0  0  0  0  0  0  0
   -0.6026    1.4709   12.3933 C   0  0  0  0  0  0  0  0  0  0  0  0
 18 19  1  0  0  0
 19 20  1  0  0  0
 20 21  1  0  0  0
 21 22  1  0  0  0
 22 23  1  0  0  0
 23 24  1  0  0  0
 19 24  1  0  0  0
 22  1  1  0  0  0
  1  2  1  0  0  0
  2  3  2  0  0  0
  3  4  1  0  0  0
  4  5  2  0  0  0
  1  5  1  0  0  0
  4 25  1  0  0  0
 25 26  2  0  0  0
 26 27  1  0  0  0
 27 28  2  0  0  0
 28 29  1  0  0  0
 29 30  2  0  0  0
 25 30  1  0  0  0
  3  6  1  0  0  0
  6  7  2  0  0  0
  7  8  1  0  0  0
  8  9  2  0  0  0
  9 10  1  0  0  0
 10 11  2  0  0  0
  6 11  1  0  0  0
  9 12  1  0  0  0
 12 13  2  0  0  0
 13 14  1  0  0  0
 12 15  1  0  0  0
 15 16  1  0  0  0
  8 16  1  0  0  0
 14 17  1  0  0  0
M  END
> <minimizedAffinity>
-8.40096

$$$$
mol_60146017_13


 30 34  0  0  0  0  0  0  0  0999 V2000
    2.2661   -3.9751    8.2292 N   0  0  0  0  0  0  0  0  0  0  0  0
    0.5258   -1.9967   11.5342 C   0  0  0  0  0  0  0  0  0  0  0  0
    1.0972   -2.6885   10.4075 C   0  0  0  0  0  0  0  0  0  0  0  0
    2.3555   -2.2539    9.8581 C   0  0  0  0  0  0  0  0  0  0  0  0
    2.9079   -2.9228    8.7686 N   0  0  0  0  0  0  0  0  0  0  0  0
    0.3720   -3.8774    9.7983 C   0  0  0  0  0  0  0  0  0  0  0  0
   -3.4017   -0.8600    7.8955 C   0  0  0  0  0  0  0  0  0  0  0  0
   -4.4652   -0.9110    6.9257 C   0  0  0  0  0  0  0  0  0  0  0  0
   -2.0808   -2.1127    7.4769 C   0  0  0  0  0  0  0  0  0  0  0  0
   -1.0341   -2.3254    8.4431 C   0  0  0  0  0  0  0  0  0  0  0  0
   -0.6747   -3.6646    8.8321 C   0  0  0  0  0  0  0  0  0  0  0  0
   -2.8059   -3.3017    6.8677 C   0  0  0  0  0  0  0  0  0  0  0  0
   -2.4774   -4.5251    7.2230 N   0  0  0  0  0  0  0  0  0  0  0  0
   -1.4818   -4.7274    8.1422 O   0  0  0  0  0  0  0  0  0  0  0  0
   -3.9105   -3.0771    5.8479 C   0  0  0  0  0  0  0  0  0  0  0  0
   -5.0214   -2.2527    6.4777 C   0  0  0  0  0  0  0  0  0  0  0  0
   -1.2321   -5.6573    8.4122 H   0  0  0  0  0  0  0  0  0  0  0  0
    2.7710   -6.4525   10.1009 C   0  0  0  0  0  0  0  0  0  0  0  0
    3.9008   -5.5432    9.6461 C   0  0  0  0  0  0  0  0  0  0  0  0
    1.5042   -3.6286    5.3446 C   0  0  0  0  0  0  0  0  0  0  0  0
    2.9047   -3.9930    5.8093 C   0  0  0  0  0  0  0  0  0  0  0  0
    2.8294   -4.6571    7.1185 N   0  0  0  0  0  0  0  0  0  0  0  0
    3.3372   -6.0275    7.2778 C   0  0  0  0  0  0  0  0  0  0  0  0
    4.4465   -6.0391    8.3169 C   0  0  0  0  0  0  0  0  0  0  0  0
    3.0806   -1.0649   10.4674 C   0  0  0  0  0  0  0  0  0  0  0  0
    5.8923   -0.3962   12.8252 C   0  0  0  0  0  0  0  0  0  0  0  0
    6.2969   -1.7366   13.1627 C   0  0  0  0  0  0  0  0  0  0  0  0
    5.6324   -2.8260   12.6045 N   0  0  0  0  0  0  0  0  0  0  0  0
    4.5767   -2.6192   11.7197 C   0  0  0  0  0  0  0  0  0  0  0  0
    4.1722   -1.2788   11.3822 C   0  0  0  0  0  0  0  0  0  0  0  0
 18 19  1  0  0  0
 19 20  1  0  0  0
 20 21  1  0  0  0
 21 22  1  0  0  0
 22 23  1  0  0  0
 23 24  1  0  0  0
 19 24  1  0  0  0
 22  1  1  0  0  0
  1  2  1  0  0  0
  2  3  2  0  0  0
  3  4  1  0  0  0
  4  5  2  0  0  0
  1  5  1  0  0  0
  4 25  1  0  0  0
 25 26  2  0  0  0
 26 27  1  0  0  0
 27 28  2  0  0  0
 28 29  1  0  0  0
 29 30  2  0  0  0
 25 30  1  0  0  0
  3  6  1  0  0  0
  6  7  2  0  0  0
  7  8  1  0  0  0
  8  9  2  0  0  0
  9 10  1  0  0  0
 10 11  2  0  0  0
  6 11  1  0  0  0
  9 12  1  0  0  0
 12 13  2  0  0  0
 13 14  1  0  0  0
 12 15  1  0  0  0
 15 16  1  0  0  0
  8 16  1  0  0  0
 14 17  1  0  0  0
M  END
> <minimizedAffinity>
-7.98925

$$$$
mol_11639637_14


 30 34  0  0  0  0  0  0  0  0999 V2000
    1.7895   -4.8004    8.7014 N   0  0  0  0  0  0  0  0  0  0  0  0
    0.0581   -1.2645   10.2391 C   0  0  0  0  0  0  0  0  0  0  0  0
    0.6225   -2.4799    9.7113 C   0  0  0  0  0  0  0  0  0  0  0  0
    2.0518   -2.6260    9.6111 C   0  0  0  0  0  0  0  0  0  0  0  0
    2.5975   -3.8014    9.1008 N   0  0  0  0  0  0  0  0  0  0  0  0
   -0.2904   -3.6084    9.2600 C   0  0  0  0  0  0  0  0  0  0  0  0
   -3.7331   -0.2881    7.2380 C   0  0  0  0  0  0  0  0  0  0  0  0
   -4.8500   -0.2817    6.3287 C   0  0  0  0  0  0  0  0  0  0  0  0
   -2.6192   -1.7461    6.8878 C   0  0  0  0  0  0  0  0  0  0  0  0
   -1.5547   -2.0105    7.8211 C   0  0  0  0  0  0  0  0  0  0  0  0
   -1.3550   -3.3440    8.3268 C   0  0  0  0  0  0  0  0  0  0  0  0
   -3.5320   -2.8747    6.4366 C   0  0  0  0  0  0  0  0  0  0  0  0
   -3.3495   -4.0929    6.8986 N   0  0  0  0  0  0  0  0  0  0  0  0
   -2.3369   -4.3443    7.7864 O   0  0  0  0  0  0  0  0  0  0  0  0
   -4.6556   -2.5956    5.4516 C   0  0  0  0  0  0  0  0  0  0  0  0
   -5.6066   -1.5691    6.0453 C   0  0  0  0  0  0  0  0  0  0  0  0
   -2.1983   -5.2704    8.1375 H   0  0  0  0  0  0  0  0  0  0  0  0
    1.8774   -3.4408    5.8660 C   0  0  0  0  0  0  0  0  0  0  0  0
    0.8508   -4.5052    6.2174 C   0  0  0  0  0  0  0  0  0  0  0  0
    3.5542   -6.7372   10.1700 C   0  0  0  0  0  0  0  0  0  0  0  0
    2.5868   -7.1441    9.0703 C   0  0  0  0  0  0  0  0  0  0  0  0
    2.3460   -5.9987    8.1811 N   0  0  0  0  0  0  0  0  0  0  0  0
    2.6813   -6.0937    6.7529 C   0  0  0  0  0  0  0  0  0  0  0  0
    1.4262   -5.8808    5.9225 C   0  0  0  0  0  0  0  0  0  0  0  0
    2.9646   -1.4976   10.0625 C   0  0  0  0  0  0  0  0  0  0  0  0
    5.3331   -0.7414   12.8428 C   0  0  0  0  0  0  0  0  0  0  0  0
    5.2472   -1.9520   13.6183 C   0  0  0  0  0  0  0  0  0  0  0  0
    4.4108   -2.9861   13.2047 N   0  0  0  0  0  0  0  0  0  0  0  0
    3.6575   -2.8495   12.0411 C   0  0  0  0  0  0  0  0  0  0  0  0
    3.7435   -1.6389   11.2657 C   0  0  0  0  0  0  0  0  0  0  0  0
 18 19  1  0  0  0
 19 20  1  0  0  0
 20 21  1  0  0  0
 21 22  1  0  0  0
 22 23  1  0  0  0
 23 24  1  0  0  0
 19 24  1  0  0  0
 22  1  1  0  0  0
  1  2  1  0  0  0
  2  3  2  0  0  0
  3  4  1  0  0  0
  4  5  2  0  0  0
  1  5  1  0  0  0
  4 25  1  0  0  0
 25 26  2  0  0  0
 26 27  1  0  0  0
 27 28  2  0  0  0
 28 29  1  0  0  0
 29 30  2  0  0  0
 25 30  1  0  0  0
  3  6  1  0  0  0
  6  7  2  0  0  0
  7  8  1  0  0  0
  8  9  2  0  0  0
  9 10  1  0  0  0
 10 11  2  0  0  0
  6 11  1  0  0  0
  9 12  1  0  0  0
 12 13  2  0  0  0
 13 14  1  0  0  0
 12 15  1  0  0  0
 15 16  1  0  0  0
  8 16  1  0  0  0
 14 17  1  0  0  0
M  END
> <minimizedAffinity>
-8.49993

$$$$
mol_11639637_14


 30 34  0  0  0  0  0  0  0  0999 V2000
    1.8899   -2.0405   10.7952 N   0  0  0  0  0  0  0  0  0  0  0  0
   -2.2751   -1.3270   10.7012 C   0  0  0  0  0  0  0  0  0  0  0  0
   -0.8607   -1.5974   10.7294 C   0  0  0  0  0  0  0  0  0  0  0  0
    0.0753   -0.5180   10.9113 C   0  0  0  0  0  0  0  0  0  0  0  0
    1.4430   -0.7796   10.9386 N   0  0  0  0  0  0  0  0  0  0  0  0
   -0.3560   -3.0219   10.5673 C   0  0  0  0  0  0  0  0  0  0  0  0
   -1.5362   -3.0812    5.5107 C   0  0  0  0  0  0  0  0  0  0  0  0
   -1.2422   -3.8404    4.3228 C   0  0  0  0  0  0  0  0  0  0  0  0
   -0.1740   -3.2940    6.7710 C   0  0  0  0  0  0  0  0  0  0  0  0
   -0.3941   -2.7534    8.0876 C   0  0  0  0  0  0  0  0  0  0  0  0
   -0.1359   -3.5626    9.2507 C   0  0  0  0  0  0  0  0  0  0  0  0
    0.3308   -4.7186    6.6090 C   0  0  0  0  0  0  0  0  0  0  0  0
    0.5666   -5.4577    7.6715 N   0  0  0  0  0  0  0  0  0  0  0  0
    0.3573   -4.9434    8.9239 O   0  0  0  0  0  0  0  0  0  0  0  0
    0.5630   -5.2891    5.2194 C   0  0  0  0  0  0  0  0  0  0  0  0
   -0.7416   -5.2709    4.4396 C   0  0  0  0  0  0  0  0  0  0  0  0
    0.5366   -5.5053    9.7315 H   0  0  0  0  0  0  0  0  0  0  0  0
    1.5252   -3.2540   13.6744 C   0  0  0  0  0  0  0  0  0  0  0  0
    2.1637   -1.8932   13.4488 C   0  0  0  0  0  0  0  0  0  0  0  0
    3.6340   -2.6868    8.4367 C   0  0  0  0  0  0  0  0  0  0  0  0
    4.1245   -1.9481    9.6714 C   0  0  0  0  0  0  0  0  0  0  0  0
    3.2844   -2.3070   10.8230 N   0  0  0  0  0  0  0  0  0  0  0  0
    3.8879   -2.9418   12.0036 C   0  0  0  0  0  0  0  0  0  0  0  0
    3.6571   -2.0653   13.2238 C   0  0  0  0  0  0  0  0  0  0  0  0
   -0.4295    0.9065   11.0735 C   0  0  0  0  0  0  0  0  0  0  0  0
   -1.2012    3.3189   13.8115 C   0  0  0  0  0  0  0  0  0  0  0  0
   -0.8799    2.5320   14.9742 C   0  0  0  0  0  0  0  0  0  0  0  0
   -0.4173    1.2267   14.8255 N   0  0  0  0  0  0  0  0  0  0  0  0
   -0.2653    0.6824   13.5525 C   0  0  0  0  0  0  0  0  0  0  0  0
   -0.5866    1.4693   12.3899 C   0  0  0  0  0  0  0  0  0  0  0  0
 18 19  1  0  0  0
 19 20  1  0  0  0
 20 21  1  0  0  0
 21 22  1  0  0  0
 22 23  1  0  0  0
 23 24  1  0  0  0
 19 24  1  0  0  0
 22  1  1  0  0  0
  1  2  1  0  0  0
  2  3  2  0  0  0
  3  4  1  0  0  0
  4  5  2  0  0  0
  1  5  1  0  0  0
  4 25  1  0  0  0
 25 26  2  0  0  0
 26 27  1  0  0  0
 27 28  2  0  0  0
 28 29  1  0  0  0
 29 30  2  0  0  0
 25 30  1  0  0  0
  3  6  1  0  0  0
  6  7  2  0  0  0
  7  8  1  0  0  0
  8  9  2  0  0  0
  9 10  1  0  0  0
 10 11  2  0  0  0
  6 11  1  0  0  0
  9 12  1  0  0  0
 12 13  2  0  0  0
 13 14  1  0  0  0
 12 15  1  0  0  0
 15 16  1  0  0  0
  8 16  1  0  0  0
 14 17  1  0  0  0
M  END
> <minimizedAffinity>
-8.41035

$$$$
mol_11639637_14


 30 34  0  0  0  0  0  0  0  0999 V2000
    2.4080   -4.1982    8.1488 N   0  0  0  0  0  0  0  0  0  0  0  0
    0.6167   -2.1620   11.3906 C   0  0  0  0  0  0  0  0  0  0  0  0
    1.2050   -2.8729   10.2848 C   0  0  0  0  0  0  0  0  0  0  0  0
    2.4890   -2.4705    9.7713 C   0  0  0  0  0  0  0  0  0  0  0  0
    3.0579   -3.1581    8.7021 N   0  0  0  0  0  0  0  0  0  0  0  0
    0.4707   -4.0479    9.6598 C   0  0  0  0  0  0  0  0  0  0  0  0
   -3.3655   -0.9990    7.9414 C   0  0  0  0  0  0  0  0  0  0  0  0
   -4.4531   -1.0282    6.9978 C   0  0  0  0  0  0  0  0  0  0  0  0
   -2.0493   -2.2313    7.4534 C   0  0  0  0  0  0  0  0  0  0  0  0
   -0.9774   -2.4657    8.3862 C   0  0  0  0  0  0  0  0  0  0  0  0
   -0.6012   -3.8135    8.7269 C   0  0  0  0  0  0  0  0  0  0  0  0
   -2.7835   -3.4064    6.8284 C   0  0  0  0  0  0  0  0  0  0  0  0
   -2.4397   -4.6376    7.1396 N   0  0  0  0  0  0  0  0  0  0  0  0
   -1.4201   -4.8605    8.0270 O   0  0  0  0  0  0  0  0  0  0  0  0
   -3.9148   -3.1589    5.8438 C   0  0  0  0  0  0  0  0  0  0  0  0
   -5.0137   -2.3596    6.5251 C   0  0  0  0  0  0  0  0  0  0  0  0
   -1.1589   -5.7964    8.2636 H   0  0  0  0  0  0  0  0  0  0  0  0
    2.5735   -6.7536    9.9759 C   0  0  0  0  0  0  0  0  0  0  0  0
    3.8040   -5.9333    9.6251 C   0  0  0  0  0  0  0  0  0  0  0  0
    1.8795   -3.7194    5.2310 C   0  0  0  0  0  0  0  0  0  0  0  0
    3.2093   -4.2129    5.7776 C   0  0  0  0  0  0  0  0  0  0  0  0
    2.9881   -4.8992    7.0586 N   0  0  0  0  0  0  0  0  0  0  0  0
    3.3676   -6.3112    7.2110 C   0  0  0  0  0  0  0  0  0  0  0  0
    4.3973   -6.4420    8.3214 C   0  0  0  0  0  0  0  0  0  0  0  0
    3.2232   -1.2956   10.3965 C   0  0  0  0  0  0  0  0  0  0  0  0
    5.9490   -0.6788   12.8667 C   0  0  0  0  0  0  0  0  0  0  0  0
    6.2970   -2.0259   13.2388 C   0  0  0  0  0  0  0  0  0  0  0  0
    5.6243   -3.1025   12.6659 N   0  0  0  0  0  0  0  0  0  0  0  0
    4.6149   -2.8764   11.7331 C   0  0  0  0  0  0  0  0  0  0  0  0
    4.2669   -1.5294   11.3610 C   0  0  0  0  0  0  0  0  0  0  0  0
 18 19  1  0  0  0
 19 20  1  0  0  0
 20 21  1  0  0  0
 21 22  1  0  0  0
 22 23  1  0  0  0
 23 24  1  0  0  0
 19 24  1  0  0  0
 22  1  1  0  0  0
  1  2  1  0  0  0
  2  3  2  0  0  0
  3  4  1  0  0  0
  4  5  2  0  0  0
  1  5  1  0  0  0
  4 25  1  0  0  0
 25 26  2  0  0  0
 26 27  1  0  0  0
 27 28  2  0  0  0
 28 29  1  0  0  0
 29 30  2  0  0  0
 25 30  1  0  0  0
  3  6  1  0  0  0
  6  7  2  0  0  0
  7  8  1  0  0  0
  8  9  2  0  0  0
  9 10  1  0  0  0
 10 11  2  0  0  0
  6 11  1  0  0  0
  9 12  1  0  0  0
 12 13  2  0  0  0
 13 14  1  0  0  0
 12 15  1  0  0  0
 15 16  1  0  0  0
  8 16  1  0  0  0
 14 17  1  0  0  0
M  END
> <minimizedAffinity>
-8.01328

$$$$
mol_74627710_15


 30 34  0  0  0  0  0  0  0  0999 V2000
    1.7584   -4.7920    8.6602 N   0  0  0  0  0  0  0  0  0  0  0  0
    0.0809   -1.2314   10.2005 C   0  0  0  0  0  0  0  0  0  0  0  0
    0.6267   -2.4550    9.6722 C   0  0  0  0  0  0  0  0  0  0  0  0
    2.0533   -2.6164    9.5567 C   0  0  0  0  0  0  0  0  0  0  0  0
    2.5810   -3.7997    9.0458 N   0  0  0  0  0  0  0  0  0  0  0  0
   -0.3027   -3.5760    9.2365 C   0  0  0  0  0  0  0  0  0  0  0  0
   -3.7174   -0.2312    7.2075 C   0  0  0  0  0  0  0  0  0  0  0  0
   -4.8399   -0.2189    6.3052 C   0  0  0  0  0  0  0  0  0  0  0  0
   -2.6237   -1.7057    6.8629 C   0  0  0  0  0  0  0  0  0  0  0  0
   -1.5565   -1.9751    7.7917 C   0  0  0  0  0  0  0  0  0  0  0  0
   -1.3700   -3.3067    8.3078 C   0  0  0  0  0  0  0  0  0  0  0  0
   -3.5532   -2.8268    6.4273 C   0  0  0  0  0  0  0  0  0  0  0  0
   -3.3827   -4.0432    6.8987 N   0  0  0  0  0  0  0  0  0  0  0  0
   -2.3675   -4.2994    7.7822 O   0  0  0  0  0  0  0  0  0  0  0  0
   -4.6795   -2.5424    5.4471 C   0  0  0  0  0  0  0  0  0  0  0  0
   -5.6141   -1.4994    6.0377 C   0  0  0  0  0  0  0  0  0  0  0  0
   -2.2380   -5.2240    8.1405 H   0  0  0  0  0  0  0  0  0  0  0  0
    1.8333   -3.4449    5.8184 C   0  0  0  0  0  0  0  0  0  0  0  0
    0.7985   -4.4965    6.1842 C   0  0  0  0  0  0  0  0  0  0  0  0
    3.5159   -6.7423   10.1193 C   0  0  0  0  0  0  0  0  0  0  0  0
    2.5335   -7.1429    9.0309 C   0  0  0  0  0  0  0  0  0  0  0  0
    2.2966   -5.9985    8.1393 N   0  0  0  0  0  0  0  0  0  0  0  0
    2.6168   -6.1029    6.7084 C   0  0  0  0  0  0  0  0  0  0  0  0
    1.3558   -5.8796    5.8894 C   0  0  0  0  0  0  0  0  0  0  0  0
    2.9826   -1.4954    9.9924 C   0  0  0  0  0  0  0  0  0  0  0  0
    5.3486   -0.7279   12.7718 C   0  0  0  0  0  0  0  0  0  0  0  0
    5.2378   -1.9222   13.5691 C   0  0  0  0  0  0  0  0  0  0  0  0
    4.3862   -2.9494   13.1698 N   0  0  0  0  0  0  0  0  0  0  0  0
    3.6417   -2.8217   11.9996 C   0  0  0  0  0  0  0  0  0  0  0  0
    3.7525   -1.6274   11.2024 C   0  0  0  0  0  0  0  0  0  0  0  0
 18 19  1  0  0  0
 19 20  1  0  0  0
 20 21  1  0  0  0
 21 22  1  0  0  0
 22 23  1  0  0  0
 23 24  1  0  0  0
 19 24  1  0  0  0
 22  1  1  0  0  0
  1  2  1  0  0  0
  2  3  2  0  0  0
  3  4  1  0  0  0
  4  5  2  0  0  0
  1  5  1  0  0  0
  4 25  1  0  0  0
 25 26  2  0  0  0
 26 27  1  0  0  0
 27 28  2  0  0  0
 28 29  1  0  0  0
 29 30  2  0  0  0
 25 30  1  0  0  0
  3  6  1  0  0  0
  6  7  2  0  0  0
  7  8  1  0  0  0
  8  9  2  0  0  0
  9 10  1  0  0  0
 10 11  2  0  0  0
  6 11  1  0  0  0
  9 12  1  0  0  0
 12 13  2  0  0  0
 13 14  1  0  0  0
 12 15  1  0  0  0
 15 16  1  0  0  0
  8 16  1  0  0  0
 14 17  1  0  0  0
M  END
> <minimizedAffinity>
-8.47916

$$$$
mol_74627710_15


 30 34  0  0  0  0  0  0  0  0999 V2000
    1.8851   -2.0450   10.7883 N   0  0  0  0  0  0  0  0  0  0  0  0
   -2.2775   -1.3182   10.6918 C   0  0  0  0  0  0  0  0  0  0  0  0
   -0.8640   -1.5931   10.7210 C   0  0  0  0  0  0  0  0  0  0  0  0
    0.0754   -0.5164   10.9011 C   0  0  0  0  0  0  0  0  0  0  0  0
    1.4423   -0.7823   10.9293 N   0  0  0  0  0  0  0  0  0  0  0  0
   -0.3638   -3.0196   10.5617 C   0  0  0  0  0  0  0  0  0  0  0  0
   -1.5394   -3.0831    5.5041 C   0  0  0  0  0  0  0  0  0  0  0  0
   -1.2467   -3.8453    4.3177 C   0  0  0  0  0  0  0  0  0  0  0  0
   -0.1791   -3.2984    6.7660 C   0  0  0  0  0  0  0  0  0  0  0  0
   -0.3987   -2.7550    8.0815 C   0  0  0  0  0  0  0  0  0  0  0  0
   -0.1443   -3.5631    9.2462 C   0  0  0  0  0  0  0  0  0  0  0  0
    0.3211   -4.7249    6.6067 C   0  0  0  0  0  0  0  0  0  0  0  0
    0.5534   -5.4631    7.6707 N   0  0  0  0  0  0  0  0  0  0  0  0
    0.3446   -4.9461    8.9220 O   0  0  0  0  0  0  0  0  0  0  0  0
    0.5527   -5.2984    5.2183 C   0  0  0  0  0  0  0  0  0  0  0  0
   -0.7510   -5.2772    4.4373 C   0  0  0  0  0  0  0  0  0  0  0  0
    0.5213   -5.5073    9.7307 H   0  0  0  0  0  0  0  0  0  0  0  0
    1.5156   -3.2524   13.6695 C   0  0  0  0  0  0  0  0  0  0  0  0
    2.1585   -1.8940   13.4418 C   0  0  0  0  0  0  0  0  0  0  0  0
    3.6279   -2.7009    8.4316 C   0  0  0  0  0  0  0  0  0  0  0  0
    4.1203   -1.9618    9.6651 C   0  0  0  0  0  0  0  0  0  0  0  0
    3.2787   -2.3160   10.8171 N   0  0  0  0  0  0  0  0  0  0  0  0
    3.8797   -2.9508   11.9989 C   0  0  0  0  0  0  0  0  0  0  0  0
    3.6514   -2.0714   13.2175 C   0  0  0  0  0  0  0  0  0  0  0  0
   -0.4249    0.9100   11.0604 C   0  0  0  0  0  0  0  0  0  0  0  0
   -1.1921    3.3293   13.7935 C   0  0  0  0  0  0  0  0  0  0  0  0
   -0.8751    2.5432   14.9579 C   0  0  0  0  0  0  0  0  0  0  0  0
   -0.4167    1.2362   14.8119 N   0  0  0  0  0  0  0  0  0  0  0  0
   -0.2648    0.6893   13.5399 C   0  0  0  0  0  0  0  0  0  0  0  0
   -0.5818    1.4755   12.3756 C   0  0  0  0  0  0  0  0  0  0  0  0
 18 19  1  0  0  0
 19 20  1  0  0  0
 20 21  1  0  0  0
 21 22  1  0  0  0
 22 23  1  0  0  0
 23 24  1  0  0  0
 19 24  1  0  0  0
 22  1  1  0  0  0
  1  2  1  0  0  0
  2  3  2  0  0  0
  3  4  1  0  0  0
  4  5  2  0  0  0
  1  5  1  0  0  0
  4 25  1  0  0  0
 25 26  2  0  0  0
 26 27  1  0  0  0
 27 28  2  0  0  0
 28 29  1  0  0  0
 29 30  2  0  0  0
 25 30  1  0  0  0
  3  6  1  0  0  0
  6  7  2  0  0  0
  7  8  1  0  0  0
  8  9  2  0  0  0
  9 10  1  0  0  0
 10 11  2  0  0  0
  6 11  1  0  0  0
  9 12  1  0  0  0
 12 13  2  0  0  0
 13 14  1  0  0  0
 12 15  1  0  0  0
 15 16  1  0  0  0
  8 16  1  0  0  0
 14 17  1  0  0  0
M  END
> <minimizedAffinity>
-8.39822

$$$$
mol_74627710_15


 30 34  0  0  0  0  0  0  0  0999 V2000
    2.4809   -4.0317    8.2838 N   0  0  0  0  0  0  0  0  0  0  0  0
    0.5997   -2.0009   11.4777 C   0  0  0  0  0  0  0  0  0  0  0  0
    1.2191   -2.7106   10.3884 C   0  0  0  0  0  0  0  0  0  0  0  0
    2.4955   -2.2781    9.8803 C   0  0  0  0  0  0  0  0  0  0  0  0
    3.0945   -2.9646    8.8269 N   0  0  0  0  0  0  0  0  0  0  0  0
    0.5259   -3.9162    9.7749 C   0  0  0  0  0  0  0  0  0  0  0  0
   -3.3498   -0.9996    7.9209 C   0  0  0  0  0  0  0  0  0  0  0  0
   -4.4180   -1.0753    6.9579 C   0  0  0  0  0  0  0  0  0  0  0  0
   -1.9949   -2.2087    7.4837 C   0  0  0  0  0  0  0  0  0  0  0  0
   -0.9357   -2.3972    8.4412 C   0  0  0  0  0  0  0  0  0  0  0  0
   -0.5334   -3.7279    8.8175 C   0  0  0  0  0  0  0  0  0  0  0  0
   -2.6882   -3.4144    6.8702 C   0  0  0  0  0  0  0  0  0  0  0  0
   -2.3206   -4.6300    7.2140 N   0  0  0  0  0  0  0  0  0  0  0  0
   -1.3130   -4.8091    8.1248 O   0  0  0  0  0  0  0  0  0  0  0  0
   -3.8061   -3.2155    5.8598 C   0  0  0  0  0  0  0  0  0  0  0  0
   -4.9369   -2.4298    6.5032 C   0  0  0  0  0  0  0  0  0  0  0  0
   -1.0337   -5.7332    8.3860 H   0  0  0  0  0  0  0  0  0  0  0  0
    2.8748   -6.4898   10.2070 C   0  0  0  0  0  0  0  0  0  0  0  0
    4.0326   -5.5945    9.7967 C   0  0  0  0  0  0  0  0  0  0  0  0
    1.8621   -3.7149    5.3617 C   0  0  0  0  0  0  0  0  0  0  0  0
    3.2356   -4.0841    5.8979 C   0  0  0  0  0  0  0  0  0  0  0  0
    3.0917   -4.7315    7.2098 N   0  0  0  0  0  0  0  0  0  0  0  0
    3.5801   -6.1036    7.4098 C   0  0  0  0  0  0  0  0  0  0  0  0
    4.6378   -6.1107    8.5015 C   0  0  0  0  0  0  0  0  0  0  0  0
    3.1888   -1.0726   10.4939 C   0  0  0  0  0  0  0  0  0  0  0  0
    5.8991   -0.3383   12.9488 C   0  0  0  0  0  0  0  0  0  0  0  0
    6.2972   -1.6690   13.3298 C   0  0  0  0  0  0  0  0  0  0  0  0
    5.6620   -2.7736   12.7676 N   0  0  0  0  0  0  0  0  0  0  0  0
    4.6417   -2.5915   11.8370 C   0  0  0  0  0  0  0  0  0  0  0  0
    4.2437   -1.2609   11.4560 C   0  0  0  0  0  0  0  0  0  0  0  0
 18 19  1  0  0  0
 19 20  1  0  0  0
 20 21  1  0  0  0
 21 22  1  0  0  0
 22 23  1  0  0  0
 23 24  1  0  0  0
 19 24  1  0  0  0
 22  1  1  0  0  0
  1  2  1  0  0  0
  2  3  2  0  0  0
  3  4  1  0  0  0
  4  5  2  0  0  0
  1  5  1  0  0  0
  4 25  1  0  0  0
 25 26  2  0  0  0
 26 27  1  0  0  0
 27 28  2  0  0  0
 28 29  1  0  0  0
 29 30  2  0  0  0
 25 30  1  0  0  0
  3  6  1  0  0  0
  6  7  2  0  0  0
  7  8  1  0  0  0
  8  9  2  0  0  0
  9 10  1  0  0  0
 10 11  2  0  0  0
  6 11  1  0  0  0
  9 12  1  0  0  0
 12 13  2  0  0  0
 13 14  1  0  0  0
 12 15  1  0  0  0
 15 16  1  0  0  0
  8 16  1  0  0  0
 14 17  1  0  0  0
M  END
> <minimizedAffinity>
-7.95579

$$$$
mol_87623644_16


 30 34  0  0  0  0  0  0  0  0999 V2000
    1.8079   -4.8135    8.7333 N   0  0  0  0  0  0  0  0  0  0  0  0
    0.0886   -1.2550   10.2321 C   0  0  0  0  0  0  0  0  0  0  0  0
    0.6488   -2.4781    9.7179 C   0  0  0  0  0  0  0  0  0  0  0  0
    2.0774   -2.6279    9.6136 C   0  0  0  0  0  0  0  0  0  0  0  0
    2.6192   -3.8107    9.1163 N   0  0  0  0  0  0  0  0  0  0  0  0
   -0.2677   -3.6110    9.2853 C   0  0  0  0  0  0  0  0  0  0  0  0
   -3.7069   -0.3123    7.2221 C   0  0  0  0  0  0  0  0  0  0  0  0
   -4.8256   -0.3166    6.3152 C   0  0  0  0  0  0  0  0  0  0  0  0
   -2.5973   -1.7781    6.8909 C   0  0  0  0  0  0  0  0  0  0  0  0
   -1.5313   -2.0313    7.8257 C   0  0  0  0  0  0  0  0  0  0  0  0
   -1.3337   -3.3577    8.3505 C   0  0  0  0  0  0  0  0  0  0  0  0
   -3.5137   -2.9108    6.4583 C   0  0  0  0  0  0  0  0  0  0  0  0
   -3.3332   -4.1226    6.9377 N   0  0  0  0  0  0  0  0  0  0  0  0
   -2.3192   -4.3635    7.8269 O   0  0  0  0  0  0  0  0  0  0  0  0
   -4.6388   -2.6437    5.4717 C   0  0  0  0  0  0  0  0  0  0  0  0
   -5.5860   -1.6062    6.0524 C   0  0  0  0  0  0  0  0  0  0  0  0
   -2.1820   -5.2846    8.1914 H   0  0  0  0  0  0  0  0  0  0  0  0
    1.9609   -3.4636    5.8960 C   0  0  0  0  0  0  0  0  0  0  0  0
    0.9166   -4.5156    6.2322 C   0  0  0  0  0  0  0  0  0  0  0  0
    3.5248   -6.7651   10.2385 C   0  0  0  0  0  0  0  0  0  0  0  0
    2.5725   -7.1646    9.1231 C   0  0  0  0  0  0  0  0  0  0  0  0
    2.3602   -6.0194    8.2263 N   0  0  0  0  0  0  0  0  0  0  0  0
    2.7196   -6.1226    6.8047 C   0  0  0  0  0  0  0  0  0  0  0  0
    1.4817   -5.8984    5.9515 C   0  0  0  0  0  0  0  0  0  0  0  0
    2.9939   -1.4951   10.0462 C   0  0  0  0  0  0  0  0  0  0  0  0
    5.3184   -0.6753   12.8456 C   0  0  0  0  0  0  0  0  0  0  0  0
    5.2047   -1.8596   13.6573 C   0  0  0  0  0  0  0  0  0  0  0  0
    4.3648   -2.8976   13.2608 N   0  0  0  0  0  0  0  0  0  0  0  0
    3.6349   -2.7903   12.0795 C   0  0  0  0  0  0  0  0  0  0  0  0
    3.7487   -1.6060   11.2678 C   0  0  0  0  0  0  0  0  0  0  0  0
 18 19  1  0  0  0
 19 20  1  0  0  0
 20 21  1  0  0  0
 21 22  1  0  0  0
 22 23  1  0  0  0
 23 24  1  0  0  0
 19 24  1  0  0  0
 22  1  1  0  0  0
  1  2  1  0  0  0
  2  3  2  0  0  0
  3  4  1  0  0  0
  4  5  2  0  0  0
  1  5  1  0  0  0
  4 25  1  0  0  0
 25 26  2  0  0  0
 26 27  1  0  0  0
 27 28  2  0  0  0
 28 29  1  0  0  0
 29 30  2  0  0  0
 25 30  1  0  0  0
  3  6  1  0  0  0
  6  7  2  0  0  0
  7  8  1  0  0  0
  8  9  2  0  0  0
  9 10  1  0  0  0
 10 11  2  0  0  0
  6 11  1  0  0  0
  9 12  1  0  0  0
 12 13  2  0  0  0
 13 14  1  0  0  0
 12 15  1  0  0  0
 15 16  1  0  0  0
  8 16  1  0  0  0
 14 17  1  0  0  0
M  END
> <minimizedAffinity>
-8.45081

$$$$
mol_87623644_16


 30 34  0  0  0  0  0  0  0  0999 V2000
    1.8501   -2.0374   10.8001 N   0  0  0  0  0  0  0  0  0  0  0  0
   -2.3148   -1.3255   10.6926 C   0  0  0  0  0  0  0  0  0  0  0  0
   -0.9006   -1.5953   10.7254 C   0  0  0  0  0  0  0  0  0  0  0  0
    0.0343   -0.5160   10.9138 C   0  0  0  0  0  0  0  0  0  0  0  0
    1.4021   -0.7770   10.9455 N   0  0  0  0  0  0  0  0  0  0  0  0
   -0.3945   -3.0192   10.5612 C   0  0  0  0  0  0  0  0  0  0  0  0
   -1.5634   -3.0673    5.5019 C   0  0  0  0  0  0  0  0  0  0  0  0
   -1.2661   -3.8236    4.3129 C   0  0  0  0  0  0  0  0  0  0  0  0
   -0.2038   -3.2823    6.7647 C   0  0  0  0  0  0  0  0  0  0  0  0
   -0.4272   -2.7449    8.0821 C   0  0  0  0  0  0  0  0  0  0  0  0
   -0.1711   -3.5565    9.2439 C   0  0  0  0  0  0  0  0  0  0  0  0
    0.3023   -4.7060    6.6005 C   0  0  0  0  0  0  0  0  0  0  0  0
    0.5363   -5.4476    7.6618 N   0  0  0  0  0  0  0  0  0  0  0  0
    0.3237   -4.9363    8.9150 O   0  0  0  0  0  0  0  0  0  0  0  0
    0.5381   -5.2733    5.2101 C   0  0  0  0  0  0  0  0  0  0  0  0
   -0.7649   -5.2540    4.4275 C   0  0  0  0  0  0  0  0  0  0  0  0
    0.5016   -5.5000    9.7217 H   0  0  0  0  0  0  0  0  0  0  0  0
    1.4736   -3.2684   13.6705 C   0  0  0  0  0  0  0  0  0  0  0  0
    2.1125   -1.9060   13.4559 C   0  0  0  0  0  0  0  0  0  0  0  0
    3.6046   -2.6687    8.4453 C   0  0  0  0  0  0  0  0  0  0  0  0
    4.0893   -1.9372    9.6865 C   0  0  0  0  0  0  0  0  0  0  0  0
    3.2446   -2.3035   10.8324 N   0  0  0  0  0  0  0  0  0  0  0  0
    3.8433   -2.9451   12.0117 C   0  0  0  0  0  0  0  0  0  0  0  0
    3.6069   -2.0761   13.2361 C   0  0  0  0  0  0  0  0  0  0  0  0
   -0.4717    0.9078   11.0780 C   0  0  0  0  0  0  0  0  0  0  0  0
   -1.2345    3.3196   13.8191 C   0  0  0  0  0  0  0  0  0  0  0  0
   -0.9071    2.5332   14.9804 C   0  0  0  0  0  0  0  0  0  0  0  0
   -0.4435    1.2285   14.8299 N   0  0  0  0  0  0  0  0  0  0  0  0
   -0.2964    0.6842   13.5563 C   0  0  0  0  0  0  0  0  0  0  0  0
   -0.6238    1.4706   12.3950 C   0  0  0  0  0  0  0  0  0  0  0  0
 18 19  1  0  0  0
 19 20  1  0  0  0
 20 21  1  0  0  0
 21 22  1  0  0  0
 22 23  1  0  0  0
 23 24  1  0  0  0
 19 24  1  0  0  0
 22  1  1  0  0  0
  1  2  1  0  0  0
  2  3  2  0  0  0
  3  4  1  0  0  0
  4  5  2  0  0  0
  1  5  1  0  0  0
  4 25  1  0  0  0
 25 26  2  0  0  0
 26 27  1  0  0  0
 27 28  2  0  0  0
 28 29  1  0  0  0
 29 30  2  0  0  0
 25 30  1  0  0  0
  3  6  1  0  0  0
  6  7  2  0  0  0
  7  8  1  0  0  0
  8  9  2  0  0  0
  9 10  1  0  0  0
 10 11  2  0  0  0
  6 11  1  0  0  0
  9 12  1  0  0  0
 12 13  2  0  0  0
 13 14  1  0  0  0
 12 15  1  0  0  0
 15 16  1  0  0  0
  8 16  1  0  0  0
 14 17  1  0  0  0
M  END
> <minimizedAffinity>
-8.35873

$$$$
mol_87623644_16


 30 34  0  0  0  0  0  0  0  0999 V2000
    2.5504   -4.0280    8.3176 N   0  0  0  0  0  0  0  0  0  0  0  0
    0.6529   -1.9223   11.4529 C   0  0  0  0  0  0  0  0  0  0  0  0
    1.2776   -2.6573   10.3835 C   0  0  0  0  0  0  0  0  0  0  0  0
    2.5676   -2.2512    9.8883 C   0  0  0  0  0  0  0  0  0  0  0  0
    3.1718   -2.9619    8.8540 N   0  0  0  0  0  0  0  0  0  0  0  0
    0.5756   -3.8616    9.7775 C   0  0  0  0  0  0  0  0  0  0  0  0
   -3.3182   -0.9388    7.9718 C   0  0  0  0  0  0  0  0  0  0  0  0
   -4.3979   -1.0124    7.0215 C   0  0  0  0  0  0  0  0  0  0  0  0
   -1.9701   -2.1494    7.5177 C   0  0  0  0  0  0  0  0  0  0  0  0
   -0.8998   -2.3398    8.4624 C   0  0  0  0  0  0  0  0  0  0  0  0
   -0.4947   -3.6712    8.8329 C   0  0  0  0  0  0  0  0  0  0  0  0
   -2.6721   -3.3536    6.9117 C   0  0  0  0  0  0  0  0  0  0  0  0
   -2.3020   -4.5699    7.2501 N   0  0  0  0  0  0  0  0  0  0  0  0
   -1.2839   -4.7510    8.1488 O   0  0  0  0  0  0  0  0  0  0  0  0
   -3.8017   -3.1527    5.9147 C   0  0  0  0  0  0  0  0  0  0  0  0
   -4.9238   -2.3659    6.5722 C   0  0  0  0  0  0  0  0  0  0  0  0
   -1.0026   -5.6756    8.4060 H   0  0  0  0  0  0  0  0  0  0  0  0
    2.8449   -6.4760   10.2712 C   0  0  0  0  0  0  0  0  0  0  0  0
    4.0322   -5.6127    9.8770 C   0  0  0  0  0  0  0  0  0  0  0  0
    2.0001   -3.7248    5.3803 C   0  0  0  0  0  0  0  0  0  0  0  0
    3.3530   -4.1215    5.9487 C   0  0  0  0  0  0  0  0  0  0  0  0
    3.1663   -4.7526    7.2631 N   0  0  0  0  0  0  0  0  0  0  0  0
    3.6173   -6.1338    7.4859 C   0  0  0  0  0  0  0  0  0  0  0  0
    4.6516   -6.1557    8.5996 C   0  0  0  0  0  0  0  0  0  0  0  0
    3.2696   -1.0469   10.4942 C   0  0  0  0  0  0  0  0  0  0  0  0
    5.9224   -0.3144   13.0117 C   0  0  0  0  0  0  0  0  0  0  0  0
    6.2788   -1.6441   13.4351 C   0  0  0  0  0  0  0  0  0  0  0  0
    5.6354   -2.7475   12.8799 N   0  0  0  0  0  0  0  0  0  0  0  0
    4.6475   -2.5652   11.9152 C   0  0  0  0  0  0  0  0  0  0  0  0
    4.2912   -1.2355   11.4918 C   0  0  0  0  0  0  0  0  0  0  0  0
 18 19  1  0  0  0
 19 20  1  0  0  0
 20 21  1  0  0  0
 21 22  1  0  0  0
 22 23  1  0  0  0
 23 24  1  0  0  0
 19 24  1  0  0  0
 22  1  1  0  0  0
  1  2  1  0  0  0
  2  3  2  0  0  0
  3  4  1  0  0  0
  4  5  2  0  0  0
  1  5  1  0  0  0
  4 25  1  0  0  0
 25 26  2  0  0  0
 26 27  1  0  0  0
 27 28  2  0  0  0
 28 29  1  0  0  0
 29 30  2  0  0  0
 25 30  1  0  0  0
  3  6  1  0  0  0
  6  7  2  0  0  0
  7  8  1  0  0  0
  8  9  2  0  0  0
  9 10  1  0  0  0
 10 11  2  0  0  0
  6 11  1  0  0  0
  9 12  1  0  0  0
 12 13  2  0  0  0
 13 14  1  0  0  0
 12 15  1  0  0  0
 15 16  1  0  0  0
  8 16  1  0  0  0
 14 17  1  0  0  0
M  END
> <minimizedAffinity>
-7.93230

$$$$
