@<TRIPOS>MOLECULE
mol_11531192_0
 53 57 0 0 0
SMALL
GASTEIGER

@<TRIPOS>ATOM
      1 C          -1.1762    1.3672    0.0022 C.3     1  UNL1       -0.0488
      2 C          -1.9235    0.0507    0.2493 C.3     1  UNL1       -0.0303
      3 C          -1.2412   -1.1844   -0.3831 C.3     1  UNL1        0.0550
      4 C           0.2318   -1.2357    0.0461 C.3     1  UNL1       -0.0044
      5 C           0.9692    0.0553   -0.3043 C.3     1  UNL1        0.0572
      6 C           0.3060    1.2698    0.3415 C.3     1  UNL1       -0.0267
      7 O           2.3193   -0.0448    0.1411 O.3     1  UNL1       -0.3917
      8 N          -1.3826   -1.2847   -1.8375 N.ar    1  UNL1       -0.2671
      9 C          -0.9934   -2.3390   -2.6226 C.ar    1  UNL1        0.0341
     10 C          -1.2052   -1.9396   -3.9232 C.ar    1  UNL1        0.0275
     11 C          -1.7996   -0.6466   -3.8224 C.ar    1  UNL1        0.1005
     12 N          -1.8984   -0.2644   -2.5442 N.ar    1  UNL1       -0.1703
     13 C          -2.2233    0.2258   -4.9109 C.ar    1  UNL1        0.0056
     14 C          -1.7369    1.5299   -4.9890 C.ar    1  UNL1       -0.0343
     15 C          -2.0820    2.2885   -6.0929 C.ar    1  UNL1        0.0282
     16 N          -2.8704    1.8432   -7.0957 N.ar    1  UNL1       -0.2632
     17 C          -3.3479    0.5854   -6.9823 C.ar    1  UNL1        0.0282
     18 C          -3.0589   -0.2534   -5.9213 C.ar    1  UNL1       -0.0343
     19 C          -0.8174   -2.6764   -5.1102 C.ar    1  UNL1       -0.0140
     20 C          -0.0490   -2.0171   -6.0875 C.ar    1  UNL1       -0.0501
     21 C           0.1594   -2.6324   -7.3093 C.ar    1  UNL1       -0.0375
     22 C          -0.3587   -3.8986   -7.5395 C.ar    1  UNL1        0.0026
     23 C          -1.0746   -4.5992   -6.5827 C.ar    1  UNL1       -0.0519
     24 C          -1.3057   -3.9749   -5.3516 C.ar    1  UNL1       -0.0533
     25 C          -0.0533   -4.2627   -8.9136 C.2     1  UNL1        0.0876
     26 N          -0.4305   -5.3766   -9.4566 N.2     1  UNL1       -0.0915
     27 O          -0.0072   -5.4358  -10.7891 O.2     1  UNL1       -0.4090
     28 C           0.7303   -3.1498   -9.5716 C.3     1  UNL1       -0.0027
     29 C           0.8570   -2.0586   -8.4998 C.3     1  UNL1       -0.0215
     30 H          -1.2827    1.6776   -1.0425 H       1  UNL1        0.0267
     31 H          -1.6355    2.1628    0.6004 H       1  UNL1        0.0267
     32 H          -2.9590    0.1447   -0.0997 H       1  UNL1        0.0286
     33 H          -1.9794   -0.1073    1.3346 H       1  UNL1        0.0286
     34 H          -1.7505   -2.0789    0.0002 H       1  UNL1        0.0545
     35 H           0.7535   -2.0919   -0.3986 H       1  UNL1        0.0311
     36 H           0.2877   -1.3993    1.1313 H       1  UNL1        0.0311
     37 H           1.0020    0.1843   -1.3918 H       1  UNL1        0.0594
     38 H           0.4298    1.2247    1.4311 H       1  UNL1        0.0290
     39 H           0.8240    2.1835    0.0250 H       1  UNL1        0.0290
     40 H           2.3246   -0.0271    1.1133 H       1  UNL1        0.2098
     41 H          -0.5531   -3.2318   -2.2007 H       1  UNL1        0.0833
     42 H          -1.0868    1.9338   -4.2205 H       1  UNL1        0.0639
     43 H          -1.7130    3.3032   -6.2100 H       1  UNL1        0.0830
     44 H          -3.9838    0.2544   -7.7984 H       1  UNL1        0.0830
     45 H          -3.4656   -1.2584   -5.8945 H       1  UNL1        0.0639
     46 H           0.3357   -1.0150   -5.9135 H       1  UNL1        0.0627
     47 H          -1.4739   -5.5848   -6.7986 H       1  UNL1        0.0624
     48 H          -1.9089   -4.4831   -4.6027 H       1  UNL1        0.0624
     49 H          -0.3629   -6.2947  -11.0829 H       1  UNL1        0.3278
     50 H           0.1947   -2.7761  -10.4504 H       1  UNL1        0.0333
     51 H           1.7144   -3.5148   -9.8818 H       1  UNL1        0.0333
     52 H           0.3658   -1.1360   -8.8278 H       1  UNL1        0.0317
     53 H           1.9071   -1.8448   -8.2774 H       1  UNL1        0.0317
@<TRIPOS>BOND
     1     1     2    1
     2     2     3    1
     3     3     4    1
     4     4     5    1
     5     5     6    1
     6     1     6    1
     7     5     7    1
     8     3     8    1
     9     8     9   ar
    10     9    10   ar
    11    10    11   ar
    12    11    12   ar
    13     8    12   ar
    14    11    13    1
    15    13    14   ar
    16    14    15   ar
    17    15    16   ar
    18    16    17   ar
    19    17    18   ar
    20    13    18   ar
    21    10    19    1
    22    19    20   ar
    23    20    21   ar
    24    21    22   ar
    25    22    23   ar
    26    23    24   ar
    27    19    24   ar
    28    22    25    1
    29    25    26    2
    30    26    27    1
    31    25    28    1
    32    28    29    1
    33    21    29    1
    34     1    30    1
    35     1    31    1
    36     2    32    1
    37     2    33    1
    38     3    34    1
    39     4    35    1
    40     4    36    1
    41     5    37    1
    42     6    38    1
    43     6    39    1
    44     7    40    1
    45     9    41    1
    46    14    42    1
    47    15    43    1
    48    17    44    1
    49    18    45    1
    50    20    46    1
    51    23    47    1
    52    24    48    1
    53    27    49    1
    54    28    50    1
    55    28    51    1
    56    29    52    1
    57    29    53    1
@<TRIPOS>MOLECULE
mol_44587190_1
 46 49 0 0 0
SMALL
GASTEIGER

@<TRIPOS>ATOM
      1 C          -1.4383   -1.5196    0.0251 C.3     1  UNL1       -0.0215
      2 C          -2.5549   -0.4660    0.0393 C.3     1  UNL1       -0.0027
      3 C          -1.8417    0.8661    0.0594 C.2     1  UNL1        0.0876
      4 N          -2.3854    2.0422    0.0396 N.2     1  UNL1       -0.0915
      5 O          -3.7796    1.9330   -0.0062 O.2     1  UNL1       -0.4090
      6 C          -0.4050    0.6496    0.1049 C.ar    1  UNL1        0.0026
      7 C          -0.1772   -0.7200    0.0883 C.ar    1  UNL1       -0.0375
      8 C           1.1209   -1.2024    0.0947 C.ar    1  UNL1       -0.0501
      9 C           2.1873   -0.2869    0.1089 C.ar    1  UNL1       -0.0140
     10 C           1.9346    1.0988    0.1419 C.ar    1  UNL1       -0.0533
     11 C           0.6210    1.5787    0.1382 C.ar    1  UNL1       -0.0519
     12 C           3.5404   -0.7881   -0.0115 C.ar    1  UNL1        0.0275
     13 C           4.5254   -0.6385    0.9372 C.ar    1  UNL1        0.0338
     14 N           5.5978   -1.3462    0.4747 N.ar    1  UNL1       -0.2702
     15 N           5.3933   -1.9119   -0.7320 N.ar    1  UNL1       -0.1706
     16 C           4.1241   -1.5960   -1.0323 C.ar    1  UNL1        0.1005
     17 C           3.4697   -2.0821   -2.2396 C.ar    1  UNL1        0.0056
     18 C           2.8809   -1.1865   -3.1335 C.ar    1  UNL1       -0.0343
     19 C           2.1684   -1.7032   -4.2005 C.ar    1  UNL1        0.0282
     20 N           2.0088   -3.0250   -4.4257 N.ar    1  UNL1       -0.2632
     21 C           2.6037   -3.8686   -3.5542 C.ar    1  UNL1        0.0282
     22 C           3.3419   -3.4525   -2.4606 C.ar    1  UNL1       -0.0343
     23 C           6.8740   -1.5148    1.1439 C.3     1  UNL1        0.0436
     24 C           7.1874   -2.9587    1.5410 C.3     1  UNL1       -0.0101
     25 C           7.4324   -3.9097    0.3737 C.3     1  UNL1        0.0459
     26 O           8.3212   -3.3332   -0.5711 O.3     1  UNL1       -0.3949
     27 H          -1.4752   -2.1109   -0.8960 H       1  UNL1        0.0317
     28 H          -1.5227   -2.1914    0.8852 H       1  UNL1        0.0317
     29 H          -3.1860   -0.5489   -0.8512 H       1  UNL1        0.0333
     30 H          -3.1809   -0.5674    0.9316 H       1  UNL1        0.0333
     31 H          -4.0613    2.8664   -0.0253 H       1  UNL1        0.3278
     32 H           1.3051   -2.2731    0.0616 H       1  UNL1        0.0627
     33 H           2.7600    1.8074    0.1355 H       1  UNL1        0.0624
     34 H           0.4086    2.6429    0.1405 H       1  UNL1        0.0624
     35 H           4.5411   -0.1311    1.8919 H       1  UNL1        0.0832
     36 H           2.9589   -0.1134   -2.9974 H       1  UNL1        0.0639
     37 H           1.6830   -1.0479   -4.9182 H       1  UNL1        0.0830
     38 H           2.4538   -4.9248   -3.7585 H       1  UNL1        0.0830
     39 H           3.7804   -4.1757   -1.7822 H       1  UNL1        0.0639
     40 H           7.6426   -1.0921    0.4879 H       1  UNL1        0.0509
     41 H           6.8487   -0.8957    2.0486 H       1  UNL1        0.0509
     42 H           8.0985   -2.9344    2.1521 H       1  UNL1        0.0305
     43 H           6.3893   -3.3655    2.1733 H       1  UNL1        0.0305
     44 H           7.8872   -4.8346    0.7434 H       1  UNL1        0.0558
     45 H           6.5045   -4.1933   -0.1324 H       1  UNL1        0.0558
     46 H           7.7606   -2.8203   -1.1874 H       1  UNL1        0.2094
@<TRIPOS>BOND
     1     1     2    1
     2     2     3    1
     3     3     4    2
     4     4     5    1
     5     3     6    1
     6     6     7   ar
     7     1     7    1
     8     7     8   ar
     9     8     9   ar
    10     9    10   ar
    11    10    11   ar
    12     6    11   ar
    13     9    12    1
    14    12    13   ar
    15    13    14   ar
    16    14    15   ar
    17    15    16   ar
    18    12    16   ar
    19    16    17    1
    20    17    18   ar
    21    18    19   ar
    22    19    20   ar
    23    20    21   ar
    24    21    22   ar
    25    17    22   ar
    26    14    23    1
    27    23    24    1
    28    24    25    1
    29    25    26    1
    30     1    27    1
    31     1    28    1
    32     2    29    1
    33     2    30    1
    34     5    31    1
    35     8    32    1
    36    10    33    1
    37    11    34    1
    38    13    35    1
    39    18    36    1
    40    19    37    1
    41    21    38    1
    42    22    39    1
    43    23    40    1
    44    23    41    1
    45    24    42    1
    46    24    43    1
    47    25    44    1
    48    25    45    1
    49    26    46    1
@<TRIPOS>MOLECULE
mol_11653652_2
 51 55 0 0 0
SMALL
GASTEIGER

@<TRIPOS>ATOM
      1 C          -0.7482    1.2712    0.3163 C.3     1  UNL1       -0.0179
      2 C           0.6652    1.2241   -0.2558 C.3     1  UNL1       -0.0022
      3 N           1.3569    0.0034    0.1430 N.3     1  UNL1       -0.3158
      4 C           0.6524   -1.1911   -0.3158 C.3     1  UNL1       -0.0022
      5 C          -0.7605   -1.2456    0.2501 C.3     1  UNL1       -0.0179
      6 C          -1.5535    0.0289   -0.0903 C.3     1  UNL1        0.0550
      7 N          -2.8983    0.0500    0.4883 N.ar    1  UNL1       -0.2671
      8 C          -3.8639    0.9973    0.2678 C.ar    1  UNL1        0.0341
      9 C          -4.9435    0.6260    1.0382 C.ar    1  UNL1        0.0275
     10 C          -4.5608   -0.6056    1.6432 C.ar    1  UNL1        0.1005
     11 N          -3.3056   -0.9344    1.3125 N.ar    1  UNL1       -0.1703
     12 C          -5.3578   -1.4510    2.5202 C.ar    1  UNL1        0.0056
     13 C          -4.9112   -1.7510    3.8057 C.ar    1  UNL1       -0.0343
     14 C          -5.7293   -2.5190    4.6150 C.ar    1  UNL1        0.0282
     15 N          -6.9307   -3.0029    4.2293 N.ar    1  UNL1       -0.2632
     16 C          -7.3288   -2.7127    2.9720 C.ar    1  UNL1        0.0282
     17 C          -6.5894   -1.9461    2.0896 C.ar    1  UNL1       -0.0343
     18 C          -6.1478    1.4109    1.2181 C.ar    1  UNL1       -0.0140
     19 C          -6.5081    1.8032    2.5196 C.ar    1  UNL1       -0.0501
     20 C          -7.7012    2.4798    2.7130 C.ar    1  UNL1       -0.0375
     21 C          -8.5175    2.7629    1.6265 C.ar    1  UNL1        0.0026
     22 C          -8.1873    2.4054    0.3300 C.ar    1  UNL1       -0.0519
     23 C          -6.9827    1.7225    0.1273 C.ar    1  UNL1       -0.0533
     24 C          -9.7028    3.4445    2.1215 C.2     1  UNL1        0.0876
     25 N         -10.6777    3.8264    1.3584 N.2     1  UNL1       -0.0915
     26 O         -11.6756    4.4475    2.1182 O.2     1  UNL1       -0.4090
     27 C          -9.5998    3.6176    3.6194 C.3     1  UNL1       -0.0027
     28 C          -8.2741    2.9498    4.0110 C.3     1  UNL1       -0.0215
     29 H          -1.2429    2.1834   -0.0384 H       1  UNL1        0.0298
     30 H          -0.7032    1.3469    1.4110 H       1  UNL1        0.0298
     31 H           0.6378    1.3031   -1.3495 H       1  UNL1        0.0425
     32 H           1.2296    2.0879    0.1121 H       1  UNL1        0.0425
     33 H           2.3053    0.0051   -0.2334 H       1  UNL1        0.1219
     34 H           1.2051   -2.0769    0.0165 H       1  UNL1        0.0425
     35 H           0.6285   -1.2209   -1.4117 H       1  UNL1        0.0425
     36 H          -0.7015   -1.3758    1.3394 H       1  UNL1        0.0298
     37 H          -1.2754   -2.1295   -0.1464 H       1  UNL1        0.0298
     38 H          -1.7150    0.0510   -1.1772 H       1  UNL1        0.0545
     39 H          -3.6865    1.8560   -0.3642 H       1  UNL1        0.0833
     40 H          -3.9563   -1.3868    4.1681 H       1  UNL1        0.0639
     41 H          -5.4338   -2.7709    5.6292 H       1  UNL1        0.0830
     42 H          -8.2907   -3.1257    2.6825 H       1  UNL1        0.0830
     43 H          -6.9636   -1.7467    1.0916 H       1  UNL1        0.0639
     44 H          -5.8714    1.5680    3.3688 H       1  UNL1        0.0627
     45 H          -8.8513    2.6359   -0.4967 H       1  UNL1        0.0624
     46 H          -6.7113    1.4091   -0.8783 H       1  UNL1        0.0624
     47 H         -12.3432    4.6706    1.4434 H       1  UNL1        0.3278
     48 H         -10.4463    3.1356    4.1188 H       1  UNL1        0.0333
     49 H          -9.5950    4.6825    3.8734 H       1  UNL1        0.0333
     50 H          -8.4496    2.1056    4.6861 H       1  UNL1        0.0317
     51 H          -7.6055    3.6658    4.4999 H       1  UNL1        0.0317
@<TRIPOS>BOND
     1     1     2    1
     2     2     3    1
     3     3     4    1
     4     4     5    1
     5     5     6    1
     6     1     6    1
     7     6     7    1
     8     7     8   ar
     9     8     9   ar
    10     9    10   ar
    11    10    11   ar
    12     7    11   ar
    13    10    12    1
    14    12    13   ar
    15    13    14   ar
    16    14    15   ar
    17    15    16   ar
    18    16    17   ar
    19    12    17   ar
    20     9    18    1
    21    18    19   ar
    22    19    20   ar
    23    20    21   ar
    24    21    22   ar
    25    22    23   ar
    26    18    23   ar
    27    21    24    1
    28    24    25    2
    29    25    26    1
    30    24    27    1
    31    27    28    1
    32    20    28    1
    33     1    29    1
    34     1    30    1
    35     2    31    1
    36     2    32    1
    37     3    33    1
    38     4    34    1
    39     4    35    1
    40     5    36    1
    41     5    37    1
    42     6    38    1
    43     8    39    1
    44    13    40    1
    45    14    41    1
    46    16    42    1
    47    17    43    1
    48    19    44    1
    49    22    45    1
    50    23    46    1
    51    26    47    1
    52    27    48    1
    53    27    49    1
    54    28    50    1
    55    28    51    1
@<TRIPOS>MOLECULE
mol_139592319_3
 53 57 0 0 0
SMALL
GASTEIGER

@<TRIPOS>ATOM
      1 C           2.5588    0.0735   -0.2812 C.3     1  UNL1       -0.0273
      2 C           1.7004   -1.1157    0.1706 C.3     1  UNL1       -0.0256
      3 C           0.3265   -0.5494    0.0002 C.ar    1  UNL1       -0.0420
      4 C           0.3646    0.8498   -0.0586 C.ar    1  UNL1       -0.0251
      5 C           1.7777    1.3576    0.0788 C.3     1  UNL1        0.0581
      6 N           2.1001    1.7799    1.4492 N.3     1  UNL1       -0.1968
      7 O           1.4331    3.0587    1.6496 O.3     1  UNL1       -0.3145
      8 C          -0.8008    1.5880   -0.1945 C.ar    1  UNL1       -0.0562
      9 C          -2.0173    0.9052   -0.2747 C.ar    1  UNL1       -0.0536
     10 C          -2.0577   -0.5000   -0.2022 C.ar    1  UNL1       -0.0141
     11 C          -0.8736   -1.2358   -0.0572 C.ar    1  UNL1       -0.0504
     12 C          -3.3240   -1.1943   -0.2826 C.ar    1  UNL1        0.0275
     13 C          -3.7928   -2.0146    0.7163 C.ar    1  UNL1        0.0341
     14 N          -4.9786   -2.5191    0.2759 N.ar    1  UNL1       -0.2671
     15 N          -5.3562   -2.0027   -0.9142 N.ar    1  UNL1       -0.1703
     16 C          -4.3311   -1.2180   -1.2869 C.ar    1  UNL1        0.1005
     17 C          -4.3238   -0.5299   -2.5725 C.ar    1  UNL1        0.0056
     18 C          -3.2214   -0.6332   -3.4232 C.ar    1  UNL1       -0.0343
     19 C          -3.2405    0.0755   -4.6113 C.ar    1  UNL1        0.0282
     20 N          -4.2647    0.8655   -4.9971 N.ar    1  UNL1       -0.2632
     21 C          -5.3245    0.9373   -4.1618 C.ar    1  UNL1        0.0282
     22 C          -5.4046    0.2627   -2.9557 C.ar    1  UNL1       -0.0343
     23 C          -5.8148   -3.5436    0.9008 C.3     1  UNL1        0.0550
     24 C          -6.4870   -3.0694    2.1934 C.3     1  UNL1       -0.0179
     25 C          -5.5832   -3.1917    3.4153 C.3     1  UNL1       -0.0022
     26 N          -5.0316   -4.5379    3.5410 N.3     1  UNL1       -0.3158
     27 C          -4.2539   -4.9385    2.3728 C.3     1  UNL1       -0.0022
     28 C          -5.0842   -4.8805    1.0937 C.3     1  UNL1       -0.0179
     29 H           2.6791    0.0291   -1.3737 H       1  UNL1        0.0287
     30 H           3.5678    0.0414    0.1444 H       1  UNL1        0.0287
     31 H           1.8710   -1.9930   -0.4597 H       1  UNL1        0.0314
     32 H           1.8801   -1.3658    1.2210 H       1  UNL1        0.0314
     33 H           2.0069    2.1464   -0.6463 H       1  UNL1        0.0533
     34 H           1.5990    1.1712    2.1028 H       1  UNL1        0.1542
     35 H           2.1673    3.6208    1.9650 H       1  UNL1        0.2363
     36 H          -0.7720    2.6728   -0.2278 H       1  UNL1        0.0621
     37 H          -2.9381    1.4757   -0.3793 H       1  UNL1        0.0624
     38 H          -0.8914   -2.3201   -0.0029 H       1  UNL1        0.0626
     39 H          -3.3605   -2.2714    1.6698 H       1  UNL1        0.0833
     40 H          -2.3659   -1.2508   -3.1729 H       1  UNL1        0.0639
     41 H          -2.4052    0.0264   -5.3039 H       1  UNL1        0.0830
     42 H          -6.1337    1.5790   -4.4976 H       1  UNL1        0.0830
     43 H          -6.2804    0.3619   -2.3238 H       1  UNL1        0.0639
     44 H          -6.6165   -3.7245    0.1700 H       1  UNL1        0.0545
     45 H          -6.8411   -2.0364    2.0943 H       1  UNL1        0.0298
     46 H          -7.3778   -3.6896    2.3642 H       1  UNL1        0.0298
     47 H          -4.7818   -2.4467    3.3930 H       1  UNL1        0.0425
     48 H          -6.1753   -2.9752    4.3118 H       1  UNL1        0.0425
     49 H          -4.4412   -4.5845    4.3728 H       1  UNL1        0.1219
     50 H          -3.9099   -5.9686    2.5206 H       1  UNL1        0.0425
     51 H          -3.3474   -4.3319    2.2896 H       1  UNL1        0.0425
     52 H          -5.8375   -5.6786    1.1419 H       1  UNL1        0.0298
     53 H          -4.4477   -5.1060    0.2293 H       1  UNL1        0.0298
@<TRIPOS>BOND
     1     1     2    1
     2     2     3    1
     3     3     4   ar
     4     4     5    1
     5     1     5    1
     6     5     6    1
     7     6     7    1
     8     4     8   ar
     9     8     9   ar
    10     9    10   ar
    11    10    11   ar
    12     3    11   ar
    13    10    12    1
    14    12    13   ar
    15    13    14   ar
    16    14    15   ar
    17    15    16   ar
    18    12    16   ar
    19    16    17    1
    20    17    18   ar
    21    18    19   ar
    22    19    20   ar
    23    20    21   ar
    24    21    22   ar
    25    17    22   ar
    26    14    23    1
    27    23    24    1
    28    24    25    1
    29    25    26    1
    30    26    27    1
    31    27    28    1
    32    23    28    1
    33     1    29    1
    34     1    30    1
    35     2    31    1
    36     2    32    1
    37     5    33    1
    38     6    34    1
    39     7    35    1
    40     8    36    1
    41     9    37    1
    42    11    38    1
    43    13    39    1
    44    18    40    1
    45    19    41    1
    46    21    42    1
    47    22    43    1
    48    23    44    1
    49    24    45    1
    50    24    46    1
    51    25    47    1
    52    25    48    1
    53    26    49    1
    54    27    50    1
    55    27    51    1
    56    28    52    1
    57    28    53    1
@<TRIPOS>MOLECULE
mol_135927350_4
 53 57 0 0 0
SMALL
GASTEIGER

@<TRIPOS>ATOM
      1 C          -0.5057    1.2699    0.2889 C.3     1  UNL1       -0.0231
      2 C           0.8621    1.0891   -0.3642 C.3     1  UNL1       -0.0026
      3 N           1.4604   -0.1928    0.0004 N.3     1  UNL1       -0.3159
      4 C           0.6137   -1.3114   -0.4125 C.3     1  UNL1       -0.0026
      5 C          -0.7711   -1.2359    0.2277 C.3     1  UNL1       -0.0231
      6 C          -1.4539    0.1095   -0.0838 C.3     1  UNL1        0.0307
      7 N          -2.8214    0.1499    0.5062 N.3     1  UNL1       -0.2216
      8 C          -3.5545    1.4096    0.1468 C.3     1  UNL1        0.0443
      9 C          -3.6225    2.1967    1.4254 C.2     1  UNL1       -0.0020
     10 C          -3.1759    1.4115    2.4169 C.2     1  UNL1        0.0537
     11 N          -2.7340    0.2159    1.9132 N.pl3   1  UNL1       -0.2763
     12 C          -3.0571    1.7200    3.8406 C.ar    1  UNL1        0.0002
     13 C          -1.8211    1.6240    4.4817 C.ar    1  UNL1       -0.0346
     14 C          -1.7481    1.9524    5.8247 C.ar    1  UNL1        0.0282
     15 N          -2.8077    2.3528    6.5591 N.ar    1  UNL1       -0.2632
     16 C          -3.9945    2.4290    5.9198 C.ar    1  UNL1        0.0282
     17 C          -4.1684    2.1275    4.5799 C.ar    1  UNL1       -0.0346
     18 C          -4.0329    3.5938    1.4804 C.ar    1  UNL1       -0.0185
     19 C          -3.1176    4.5524    1.9505 C.ar    1  UNL1       -0.0504
     20 C          -3.5062    5.8794    2.0213 C.ar    1  UNL1       -0.0375
     21 C          -4.7877    6.2436    1.6335 C.ar    1  UNL1        0.0026
     22 C          -5.7115    5.3310    1.1545 C.ar    1  UNL1       -0.0520
     23 C          -5.3207    3.9907    1.0714 C.ar    1  UNL1       -0.0536
     24 C          -4.9298    7.6756    1.8399 C.2     1  UNL1        0.0876
     25 N          -6.0226    8.3262    1.5960 N.2     1  UNL1       -0.0915
     26 O          -5.8608    9.6824    1.9010 O.2     1  UNL1       -0.4090
     27 C          -3.6342    8.2410    2.3750 C.3     1  UNL1       -0.0027
     28 C          -2.6875    7.0379    2.4912 C.3     1  UNL1       -0.0215
     29 H          -0.9172    2.2330   -0.0318 H       1  UNL1        0.0293
     30 H          -0.3698    1.3251    1.3759 H       1  UNL1        0.0293
     31 H           0.7788    1.1739   -1.4546 H       1  UNL1        0.0424
     32 H           1.5248    1.8959   -0.0316 H       1  UNL1        0.0424
     33 H           2.3744   -0.2784   -0.4445 H       1  UNL1        0.1219
     34 H           1.0963   -2.2471   -0.1096 H       1  UNL1        0.0424
     35 H           0.5273   -1.3358   -1.5055 H       1  UNL1        0.0424
     36 H          -0.6655   -1.3750    1.3114 H       1  UNL1        0.0293
     37 H          -1.3853   -2.0658   -0.1426 H       1  UNL1        0.0293
     38 H          -1.5934    0.1384   -1.1743 H       1  UNL1        0.0480
     39 H          -3.0758    1.9660   -0.6660 H       1  UNL1        0.0493
     40 H          -4.5656    1.1395   -0.1807 H       1  UNL1        0.0493
     41 H          -2.4938   -0.5682    2.5123 H       1  UNL1        0.1665
     42 H          -0.9289    1.3197    3.9448 H       1  UNL1        0.0639
     43 H          -0.8047    1.9050    6.3608 H       1  UNL1        0.0830
     44 H          -4.8316    2.7509    6.5326 H       1  UNL1        0.0830
     45 H          -5.1502    2.2102    4.1261 H       1  UNL1        0.0639
     46 H          -2.1164    4.2605    2.2580 H       1  UNL1        0.0626
     47 H          -6.7070    5.6478    0.8616 H       1  UNL1        0.0624
     48 H          -6.0338    3.2525    0.7104 H       1  UNL1        0.0624
     49 H          -6.7431   10.0470    1.7028 H       1  UNL1        0.3278
     50 H          -3.7994    8.7073    3.3515 H       1  UNL1        0.0333
     51 H          -3.2364    8.9910    1.6838 H       1  UNL1        0.0333
     52 H          -2.3639    6.8946    3.5271 H       1  UNL1        0.0317
     53 H          -1.8057    7.1745    1.8564 H       1  UNL1        0.0317
@<TRIPOS>BOND
     1     1     2    1
     2     2     3    1
     3     3     4    1
     4     4     5    1
     5     5     6    1
     6     1     6    1
     7     6     7    1
     8     7     8    1
     9     8     9    1
    10     9    10    2
    11    10    11    1
    12     7    11    1
    13    10    12    1
    14    12    13   ar
    15    13    14   ar
    16    14    15   ar
    17    15    16   ar
    18    16    17   ar
    19    12    17   ar
    20     9    18    1
    21    18    19   ar
    22    19    20   ar
    23    20    21   ar
    24    21    22   ar
    25    22    23   ar
    26    18    23   ar
    27    21    24    1
    28    24    25    2
    29    25    26    1
    30    24    27    1
    31    27    28    1
    32    20    28    1
    33     1    29    1
    34     1    30    1
    35     2    31    1
    36     2    32    1
    37     3    33    1
    38     4    34    1
    39     4    35    1
    40     5    36    1
    41     5    37    1
    42     6    38    1
    43     8    39    1
    44     8    40    1
    45    11    41    1
    46    13    42    1
    47    14    43    1
    48    16    44    1
    49    17    45    1
    50    19    46    1
    51    22    47    1
    52    23    48    1
    53    26    49    1
    54    27    50    1
    55    27    51    1
    56    28    52    1
    57    28    53    1
@<TRIPOS>MOLECULE
mol_91896025_5
 53 57 0 0 0
SMALL
GASTEIGER

@<TRIPOS>ATOM
      1 C          -1.1753    1.3700    0.1067 C.3     1  UNL1       -0.0488
      2 C          -1.8991    0.0258    0.2432 C.3     1  UNL1       -0.0303
      3 C          -1.1742   -1.1523   -0.4440 C.3     1  UNL1        0.0550
      4 C           0.3004   -1.1940   -0.0207 C.3     1  UNL1       -0.0044
      5 C           1.0025    0.1412   -0.2568 C.3     1  UNL1        0.0572
      6 C           0.2980    1.2758    0.4823 C.3     1  UNL1       -0.0267
      7 O           2.3511    0.0437    0.1939 O.3     1  UNL1       -0.3917
      8 N          -1.3151   -1.1998   -1.9002 N.ar    1  UNL1       -0.2671
      9 C          -0.9970   -2.2621   -2.7022 C.ar    1  UNL1        0.0341
     10 C          -1.2269   -1.8457   -3.9950 C.ar    1  UNL1        0.0275
     11 C          -1.7497   -0.5237   -3.8711 C.ar    1  UNL1        0.1005
     12 N          -1.7764   -0.1408   -2.5861 N.ar    1  UNL1       -0.1703
     13 C          -2.2030    0.3711   -4.9320 C.ar    1  UNL1        0.0056
     14 C          -1.7998    1.7062   -4.9455 C.ar    1  UNL1       -0.0343
     15 C          -2.2197    2.5064   -5.9936 C.ar    1  UNL1        0.0282
     16 N          -3.0054    2.0735   -7.0037 N.ar    1  UNL1       -0.2632
     17 C          -3.3985    0.7832   -6.9567 C.ar    1  UNL1        0.0282
     18 C          -3.0303   -0.0971   -5.9547 C.ar    1  UNL1       -0.0343
     19 C          -0.9117   -2.6242   -5.1765 C.ar    1  UNL1       -0.0141
     20 C          -1.4606   -3.8988   -5.3642 C.ar    1  UNL1       -0.0504
     21 C          -1.2044   -4.5554   -6.5585 C.ar    1  UNL1       -0.0414
     22 C          -0.3936   -3.9805   -7.5481 C.ar    1  UNL1       -0.0166
     23 C           0.1815   -2.7345   -7.3613 C.ar    1  UNL1       -0.0556
     24 C          -0.0848   -2.0571   -6.1701 C.ar    1  UNL1       -0.0536
     25 C          -0.2691   -4.8918   -8.7392 C.3     1  UNL1        0.1175
     26 C          -1.4723   -5.8270   -8.5078 C.3     1  UNL1       -0.0191
     27 C          -1.6754   -5.9113   -6.9861 C.3     1  UNL1       -0.0250
     28 N           1.0716   -5.5602   -8.7512 N.2     1  UNL1       -0.0610
     29 O           1.0248   -6.7872   -8.8878 O.2     1  UNL1       -0.1484
     30 H          -1.2603    1.7465   -0.9182 H       1  UNL1        0.0267
     31 H          -1.6673    2.1131    0.7452 H       1  UNL1        0.0267
     32 H          -2.9261    0.1217   -0.1292 H       1  UNL1        0.0286
     33 H          -1.9814   -0.2038    1.3141 H       1  UNL1        0.0286
     34 H          -1.6579   -2.0770   -0.1001 H       1  UNL1        0.0545
     35 H           0.8465   -1.9934   -0.5367 H       1  UNL1        0.0311
     36 H           0.3618   -1.4481    1.0466 H       1  UNL1        0.0311
     37 H           1.0392    0.3618   -1.3294 H       1  UNL1        0.0594
     38 H           0.3931    1.1288    1.5660 H       1  UNL1        0.0290
     39 H           0.8026    2.2260    0.2692 H       1  UNL1        0.0290
     40 H           2.3461   -0.0518    1.1615 H       1  UNL1        0.2098
     41 H          -0.5974   -3.1817   -2.2985 H       1  UNL1        0.0833
     42 H          -1.1655    2.1090   -4.1633 H       1  UNL1        0.0639
     43 H          -1.9224    3.5492   -6.0530 H       1  UNL1        0.0830
     44 H          -4.0384    0.4629   -7.7738 H       1  UNL1        0.0830
     45 H          -3.3856   -1.1215   -5.9764 H       1  UNL1        0.0639
     46 H          -2.0955   -4.3527   -4.6094 H       1  UNL1        0.0626
     47 H           0.8188   -2.2860   -8.1174 H       1  UNL1        0.0621
     48 H           0.3543   -1.0722   -6.0180 H       1  UNL1        0.0624
     49 H          -0.3678   -4.3436   -9.6815 H       1  UNL1        0.0629
     50 H          -2.3650   -5.3549   -8.9454 H       1  UNL1        0.0293
     51 H          -1.3893   -6.8147   -8.9718 H       1  UNL1        0.0293
     52 H          -2.7249   -6.0871   -6.7345 H       1  UNL1        0.0314
     53 H          -1.0455   -6.6886   -6.5419 H       1  UNL1        0.0314
@<TRIPOS>BOND
     1     1     2    1
     2     2     3    1
     3     3     4    1
     4     4     5    1
     5     5     6    1
     6     1     6    1
     7     5     7    1
     8     3     8    1
     9     8     9   ar
    10     9    10   ar
    11    10    11   ar
    12    11    12   ar
    13     8    12   ar
    14    11    13    1
    15    13    14   ar
    16    14    15   ar
    17    15    16   ar
    18    16    17   ar
    19    17    18   ar
    20    13    18   ar
    21    10    19    1
    22    19    20   ar
    23    20    21   ar
    24    21    22   ar
    25    22    23   ar
    26    23    24   ar
    27    19    24   ar
    28    22    25    1
    29    25    26    1
    30    26    27    1
    31    21    27    1
    32    25    28    1
    33    28    29    2
    34     1    30    1
    35     1    31    1
    36     2    32    1
    37     2    33    1
    38     3    34    1
    39     4    35    1
    40     4    36    1
    41     5    37    1
    42     6    38    1
    43     6    39    1
    44     7    40    1
    45     9    41    1
    46    14    42    1
    47    15    43    1
    48    17    44    1
    49    18    45    1
    50    20    46    1
    51    23    47    1
    52    24    48    1
    53    25    49    1
    54    26    50    1
    55    26    51    1
    56    27    52    1
    57    27    53    1
@<TRIPOS>MOLECULE
mol_91896028_6
 46 49 0 0 0
SMALL
GASTEIGER

@<TRIPOS>ATOM
      1 C           2.4836   -0.0315   -0.1208 C.3     1  UNL1       -0.0191
      2 C           1.6467   -1.2566    0.2825 C.3     1  UNL1       -0.0250
      3 C           0.2569   -0.7194    0.1311 C.ar    1  UNL1       -0.0414
      4 C           0.2628    0.6823    0.1310 C.ar    1  UNL1       -0.0166
      5 C           1.6643    1.2112    0.2791 C.3     1  UNL1        0.1175
      6 N           1.8930    1.7124    1.6734 N.2     1  UNL1       -0.0610
      7 O           2.8378    1.1738    2.2598 O.2     1  UNL1       -0.1484
      8 C          -0.9185    1.3991    0.0211 C.ar    1  UNL1       -0.0556
      9 C          -2.1166    0.6890   -0.0976 C.ar    1  UNL1       -0.0536
     10 C          -2.1269   -0.7200   -0.0901 C.ar    1  UNL1       -0.0141
     11 C          -0.9278   -1.4333    0.0375 C.ar    1  UNL1       -0.0504
     12 C          -3.3809   -1.4278   -0.2546 C.ar    1  UNL1        0.0275
     13 C          -3.9131   -2.2760    0.6888 C.ar    1  UNL1        0.0338
     14 N          -5.1076   -2.6960    0.1851 N.ar    1  UNL1       -0.2702
     15 N          -5.3834   -2.1953   -1.0356 N.ar    1  UNL1       -0.1706
     16 C          -4.3369   -1.3994   -1.3141 C.ar    1  UNL1        0.1005
     17 C          -4.2770   -0.6432   -2.5594 C.ar    1  UNL1        0.0056
     18 C          -3.1349   -0.6777   -3.3607 C.ar    1  UNL1       -0.0343
     19 C          -3.1192    0.0908   -4.5113 C.ar    1  UNL1        0.0282
     20 N          -4.1440    0.8769   -4.9037 N.ar    1  UNL1       -0.2632
     21 C          -5.2423    0.8823   -4.1174 C.ar    1  UNL1        0.0282
     22 C          -5.3586    0.1454   -2.9521 C.ar    1  UNL1       -0.0343
     23 C          -6.0242   -3.6364    0.8001 C.3     1  UNL1        0.0436
     24 C          -7.3898   -3.0488    1.1582 C.3     1  UNL1       -0.0101
     25 C          -8.2043   -2.5233   -0.0206 C.3     1  UNL1        0.0459
     26 O          -8.0998   -3.3836   -1.1443 O.3     1  UNL1       -0.3949
     27 H           2.5906   -0.0366   -1.2160 H       1  UNL1        0.0293
     28 H           3.4991   -0.0684    0.2864 H       1  UNL1        0.0293
     29 H           1.8400   -2.1043   -0.3809 H       1  UNL1        0.0314
     30 H           1.8317   -1.5424    1.3227 H       1  UNL1        0.0314
     31 H           1.8587    2.0473   -0.4000 H       1  UNL1        0.0629
     32 H          -0.9221    2.4849    0.0270 H       1  UNL1        0.0621
     33 H          -3.0496    1.2419   -0.1913 H       1  UNL1        0.0624
     34 H          -0.9194   -2.5190    0.0437 H       1  UNL1        0.0626
     35 H          -3.5543   -2.5956    1.6587 H       1  UNL1        0.0832
     36 H          -2.2770   -1.2890   -3.1037 H       1  UNL1        0.0639
     37 H          -2.2540    0.0953   -5.1682 H       1  UNL1        0.0830
     38 H          -6.0525    1.5202   -4.4585 H       1  UNL1        0.0830
     39 H          -6.2651    0.1939   -2.3583 H       1  UNL1        0.0639
     40 H          -6.1183   -4.4875    0.1162 H       1  UNL1        0.0509
     41 H          -5.5454   -4.0115    1.7126 H       1  UNL1        0.0509
     42 H          -7.9669   -3.8479    1.6405 H       1  UNL1        0.0305
     43 H          -7.2812   -2.2487    1.9001 H       1  UNL1        0.0305
     44 H          -9.2604   -2.4563    0.2601 H       1  UNL1        0.0558
     45 H          -7.8873   -1.5171   -0.3141 H       1  UNL1        0.0558
     46 H          -7.2541   -3.1415   -1.5816 H       1  UNL1        0.2094
@<TRIPOS>BOND
     1     1     2    1
     2     2     3    1
     3     3     4   ar
     4     4     5    1
     5     1     5    1
     6     5     6    1
     7     6     7    2
     8     4     8   ar
     9     8     9   ar
    10     9    10   ar
    11    10    11   ar
    12     3    11   ar
    13    10    12    1
    14    12    13   ar
    15    13    14   ar
    16    14    15   ar
    17    15    16   ar
    18    12    16   ar
    19    16    17    1
    20    17    18   ar
    21    18    19   ar
    22    19    20   ar
    23    20    21   ar
    24    21    22   ar
    25    17    22   ar
    26    14    23    1
    27    23    24    1
    28    24    25    1
    29    25    26    1
    30     1    27    1
    31     1    28    1
    32     2    29    1
    33     2    30    1
    34     5    31    1
    35     8    32    1
    36     9    33    1
    37    11    34    1
    38    13    35    1
    39    18    36    1
    40    19    37    1
    41    21    38    1
    42    22    39    1
    43    23    40    1
    44    23    41    1
    45    24    42    1
    46    24    43    1
    47    25    44    1
    48    25    45    1
    49    26    46    1
@<TRIPOS>MOLECULE
mol_11624965_7
 50 54 0 0 0
SMALL
GASTEIGER

@<TRIPOS>ATOM
      1 C           0.7474   -1.2708   -0.1215 C.3     1  UNL1       -0.0069
      2 C          -0.7377   -1.1769    0.1962 C.3     1  UNL1        0.0496
      3 O          -1.2995   -0.0336   -0.4439 O.3     1  UNL1       -0.3796
      4 C          -0.7428    1.1853    0.0508 C.3     1  UNL1        0.0496
      5 C           0.7576    1.2391   -0.2220 C.3     1  UNL1       -0.0069
      6 C           1.4840   -0.0014    0.3300 C.3     1  UNL1        0.0569
      7 N           1.6845    0.0167    1.7807 N.ar    1  UNL1       -0.2671
      8 C           2.4003   -0.8919    2.5114 C.ar    1  UNL1        0.0341
      9 C           2.2457   -0.5272    3.8315 C.ar    1  UNL1        0.0275
     10 C           1.4657    0.6628    3.7962 C.ar    1  UNL1        0.1005
     11 N           1.1266    0.9755    2.5384 N.ar    1  UNL1       -0.1703
     12 C           1.0290    1.4951    4.9066 C.ar    1  UNL1        0.0056
     13 C          -0.3299    1.7343    5.1083 C.ar    1  UNL1       -0.0343
     14 C          -0.6992    2.5351    6.1737 C.ar    1  UNL1        0.0282
     15 N           0.1808    3.1060    7.0247 N.ar    1  UNL1       -0.2632
     16 C           1.4910    2.8704    6.7954 C.ar    1  UNL1        0.0282
     17 C           1.9619    2.0757    5.7652 C.ar    1  UNL1       -0.0343
     18 C           2.7195   -1.3171    4.9487 C.ar    1  UNL1       -0.0140
     19 C           1.7867   -1.8192    5.8729 C.ar    1  UNL1       -0.0501
     20 C           2.2409   -2.5806    6.9384 C.ar    1  UNL1       -0.0375
     21 C           3.6002   -2.8264    7.0818 C.ar    1  UNL1        0.0026
     22 C           4.5458   -2.3446    6.1932 C.ar    1  UNL1       -0.0519
     23 C           4.0937   -1.5841    5.1106 C.ar    1  UNL1       -0.0533
     24 C           3.7888   -3.6417    8.2704 C.2     1  UNL1        0.0876
     25 N           4.9509   -4.0328    8.6890 N.2     1  UNL1       -0.0915
     26 O           4.8173   -4.8037    9.8491 O.2     1  UNL1       -0.4090
     27 C           2.4471   -3.9428    8.8962 C.3     1  UNL1       -0.0027
     28 C           1.4213   -3.2077    8.0205 C.3     1  UNL1       -0.0215
     29 H           0.8663   -1.3635   -1.2090 H       1  UNL1        0.0308
     30 H           1.1726   -2.1746    0.3272 H       1  UNL1        0.0308
     31 H          -1.2543   -2.0604   -0.1922 H       1  UNL1        0.0560
     32 H          -0.9269   -1.1333    1.2750 H       1  UNL1        0.0560
     33 H          -0.9872    1.2883    1.1129 H       1  UNL1        0.0560
     34 H          -1.2401    2.0095   -0.4707 H       1  UNL1        0.0560
     35 H           1.1851    2.1688    0.1702 H       1  UNL1        0.0308
     36 H           0.9040    1.2550   -1.3100 H       1  UNL1        0.0308
     37 H           2.5015   -0.0136   -0.0832 H       1  UNL1        0.0546
     38 H           2.9010   -1.7305    2.0473 H       1  UNL1        0.0833
     39 H          -1.0795    1.3085    4.4503 H       1  UNL1        0.0639
     40 H          -1.7448    2.7477    6.3766 H       1  UNL1        0.0830
     41 H           2.1760    3.3589    7.4824 H       1  UNL1        0.0830
     42 H           3.0278    1.9329    5.6272 H       1  UNL1        0.0639
     43 H           0.7237   -1.6255    5.7540 H       1  UNL1        0.0627
     44 H           5.6010   -2.5540    6.3349 H       1  UNL1        0.0624
     45 H           4.8161   -1.1916    4.3982 H       1  UNL1        0.0624
     46 H           5.7434   -5.0247   10.0601 H       1  UNL1        0.3278
     47 H           2.4166   -3.5810    9.9287 H       1  UNL1        0.0333
     48 H           2.2673   -5.0229    8.8911 H       1  UNL1        0.0333
     49 H           0.8925   -2.4438    8.5999 H       1  UNL1        0.0317
     50 H           0.6917   -3.9099    7.6041 H       1  UNL1        0.0317
@<TRIPOS>BOND
     1     1     2    1
     2     2     3    1
     3     3     4    1
     4     4     5    1
     5     5     6    1
     6     1     6    1
     7     6     7    1
     8     7     8   ar
     9     8     9   ar
    10     9    10   ar
    11    10    11   ar
    12     7    11   ar
    13    10    12    1
    14    12    13   ar
    15    13    14   ar
    16    14    15   ar
    17    15    16   ar
    18    16    17   ar
    19    12    17   ar
    20     9    18    1
    21    18    19   ar
    22    19    20   ar
    23    20    21   ar
    24    21    22   ar
    25    22    23   ar
    26    18    23   ar
    27    21    24    1
    28    24    25    2
    29    25    26    1
    30    24    27    1
    31    27    28    1
    32    20    28    1
    33     1    29    1
    34     1    30    1
    35     2    31    1
    36     2    32    1
    37     4    33    1
    38     4    34    1
    39     5    35    1
    40     5    36    1
    41     6    37    1
    42     8    38    1
    43    13    39    1
    44    14    40    1
    45    16    41    1
    46    17    42    1
    47    19    43    1
    48    22    44    1
    49    23    45    1
    50    26    46    1
    51    27    47    1
    52    27    48    1
    53    28    49    1
    54    28    50    1
@<TRIPOS>MOLECULE
mol_54586539_8
 53 58 0 0 0
SMALL
GASTEIGER

@<TRIPOS>ATOM
      1 C          -1.1818    1.4173    0.0000 C.3     1  UNL1       -0.0488
      2 C          -1.9472    0.1134    0.2539 C.3     1  UNL1       -0.0303
      3 C          -1.2746   -1.1339   -0.3610 C.3     1  UNL1        0.0550
      4 C           0.1960   -1.1976    0.0793 C.3     1  UNL1       -0.0044
      5 C           0.9486    0.0810   -0.2833 C.3     1  UNL1        0.0572
      6 C           0.2963    1.3050    0.3545 C.3     1  UNL1       -0.0267
      7 O           2.2977   -0.0306    0.1609 O.3     1  UNL1       -0.3917
      8 N          -1.4023   -1.2526   -1.8149 N.ar    1  UNL1       -0.2671
      9 C          -0.9563   -2.2972   -2.5761 C.ar    1  UNL1        0.0341
     10 C          -1.1364   -1.9303   -3.8946 C.ar    1  UNL1        0.0275
     11 C          -1.7923   -0.6598   -3.8196 C.ar    1  UNL1        0.1005
     12 N          -1.9481   -0.2698   -2.5460 N.ar    1  UNL1       -0.1703
     13 C          -2.2316    0.2054   -4.9080 C.ar    1  UNL1        0.0056
     14 C          -1.7663    1.5191   -4.9801 C.ar    1  UNL1       -0.0343
     15 C          -2.1306    2.2817   -6.0747 C.ar    1  UNL1        0.0282
     16 N          -2.9192    1.8311   -7.0744 N.ar    1  UNL1       -0.2632
     17 C          -3.3790    0.5657   -6.9650 C.ar    1  UNL1        0.0282
     18 C          -3.0700   -0.2781   -5.9127 C.ar    1  UNL1       -0.0343
     19 C          -0.6423   -2.7083   -5.0269 C.ar    1  UNL1       -0.0140
     20 C          -0.5905   -4.1132   -4.9660 C.ar    1  UNL1       -0.0498
     21 C          -0.0939   -4.8096   -6.0592 C.ar    1  UNL1       -0.0332
     22 C           0.3135   -4.1064   -7.2243 C.ar    1  UNL1        0.0036
     23 C           0.2859   -2.7374   -7.3106 C.ar    1  UNL1       -0.0517
     24 C          -0.1779   -2.0419   -6.1902 C.ar    1  UNL1       -0.0533
     25 C           0.7399   -5.1121   -8.1269 C.ar    1  UNL1        0.0695
     26 C           0.6419   -6.3523   -7.5627 C.ar    1  UNL1        0.0020
     27 C           0.1064   -6.3362   -6.1729 C.3     1  UNL1        0.0017
     28 C           1.1161   -7.2203   -8.5451 C.ar    1  UNL1        0.0532
     29 N           1.4542   -6.5597   -9.6690 N.ar    1  UNL1       -0.1815
     30 N           1.1979   -5.2556   -9.3837 N.ar    1  UNL1       -0.2767
     31 H          -1.2758    1.7147   -1.0498 H       1  UNL1        0.0267
     32 H          -1.6364    2.2244    0.5863 H       1  UNL1        0.0267
     33 H          -2.9791    0.2161   -0.1028 H       1  UNL1        0.0286
     34 H          -2.0122   -0.0344    1.3403 H       1  UNL1        0.0286
     35 H          -1.7958   -2.0193    0.0279 H       1  UNL1        0.0545
     36 H           0.7130   -2.0638   -0.3510 H       1  UNL1        0.0311
     37 H           0.2438   -1.3499    1.1663 H       1  UNL1        0.0311
     38 H           0.9813    0.2024   -1.3718 H       1  UNL1        0.0594
     39 H           0.4099    1.2588    1.4453 H       1  UNL1        0.0290
     40 H           0.8279    2.2118    0.0417 H       1  UNL1        0.0290
     41 H           2.3039   -0.0215    1.1330 H       1  UNL1        0.2098
     42 H          -0.4927   -3.1630   -2.1244 H       1  UNL1        0.0833
     43 H          -1.1195    1.9286   -4.2115 H       1  UNL1        0.0639
     44 H          -1.7789    3.3034   -6.1855 H       1  UNL1        0.0830
     45 H          -4.0176    0.2337   -7.7786 H       1  UNL1        0.0830
     46 H          -3.4622   -1.2888   -5.8878 H       1  UNL1        0.0639
     47 H          -0.9246   -4.6537   -4.0862 H       1  UNL1        0.0627
     48 H           0.6277   -2.2068   -8.1910 H       1  UNL1        0.0624
     49 H          -0.1564   -0.9550   -6.2317 H       1  UNL1        0.0624
     50 H           0.8431   -6.6843   -5.4445 H       1  UNL1        0.0363
     51 H          -0.8455   -6.8649   -6.0878 H       1  UNL1        0.0363
     52 H           1.2361   -8.2950   -8.5147 H       1  UNL1        0.0851
     53 H           1.3578   -4.5551  -10.0993 H       1  UNL1        0.1889
@<TRIPOS>BOND
     1     1     2    1
     2     2     3    1
     3     3     4    1
     4     4     5    1
     5     5     6    1
     6     1     6    1
     7     5     7    1
     8     3     8    1
     9     8     9   ar
    10     9    10   ar
    11    10    11   ar
    12    11    12   ar
    13     8    12   ar
    14    11    13    1
    15    13    14   ar
    16    14    15   ar
    17    15    16   ar
    18    16    17   ar
    19    17    18   ar
    20    13    18   ar
    21    10    19    1
    22    19    20   ar
    23    20    21   ar
    24    21    22   ar
    25    22    23   ar
    26    23    24   ar
    27    19    24   ar
    28    22    25    1
    29    25    26   ar
    30    26    27    1
    31    21    27    1
    32    26    28   ar
    33    28    29   ar
    34    29    30   ar
    35    25    30   ar
    36     1    31    1
    37     1    32    1
    38     2    33    1
    39     2    34    1
    40     3    35    1
    41     4    36    1
    42     4    37    1
    43     5    38    1
    44     6    39    1
    45     6    40    1
    46     7    41    1
    47     9    42    1
    48    14    43    1
    49    15    44    1
    50    17    45    1
    51    18    46    1
    52    20    47    1
    53    23    48    1
    54    24    49    1
    55    27    50    1
    56    27    51    1
    57    28    52    1
    58    30    53    1
@<TRIPOS>MOLECULE
mol_135438492_9
 43 46 0 0 0
SMALL
GASTEIGER

@<TRIPOS>ATOM
      1 C          -1.5389   -1.5325    0.0225 C.3     1  UNL1       -0.0215
      2 C          -2.6202   -0.4437    0.0372 C.3     1  UNL1       -0.0027
      3 C          -1.8653    0.8664    0.0342 C.2     1  UNL1        0.0876
      4 N          -2.3731    2.0563    0.0199 N.2     1  UNL1       -0.0915
      5 O          -3.7715    1.9886    0.0049 O.2     1  UNL1       -0.4090
      6 C          -0.4346    0.6029    0.0505 C.ar    1  UNL1        0.0026
      7 C          -0.2522   -0.7734    0.0473 C.ar    1  UNL1       -0.0375
      8 C           1.0282   -1.3006    0.0432 C.ar    1  UNL1       -0.0501
      9 C           2.1249   -0.4237    0.0287 C.ar    1  UNL1       -0.0140
     10 C           1.9193    0.9708    0.0491 C.ar    1  UNL1       -0.0533
     11 C           0.6225    1.4967    0.0576 C.ar    1  UNL1       -0.0519
     12 C           3.4653   -0.9677   -0.0398 C.ar    1  UNL1        0.0274
     13 C           3.9497   -1.7338   -1.0914 C.ar    1  UNL1        0.0767
     14 N           5.2490   -2.0392   -0.7451 N.ar    1  UNL1       -0.2609
     15 N           5.6163   -1.5379    0.4564 N.ar    1  UNL1       -0.1784
     16 C           4.5364   -0.8716    0.8692 C.ar    1  UNL1        0.0577
     17 C           6.2519   -2.7361   -1.5360 C.3     1  UNL1        0.0653
     18 C           6.4026   -4.1991   -1.1393 C.3     1  UNL1        0.0637
     19 O           5.3891   -5.0106   -1.7292 O.3     1  UNL1       -0.3932
     20 C           3.3126   -2.1197   -2.3470 C.ar    1  UNL1        0.0035
     21 C           2.7824   -3.3973   -2.5139 C.ar    1  UNL1       -0.0344
     22 C           2.1936   -3.7126   -3.7259 C.ar    1  UNL1        0.0282
     23 N           2.0804   -2.8443   -4.7523 N.ar    1  UNL1       -0.2632
     24 C           2.5785   -1.6046   -4.5562 C.ar    1  UNL1        0.0282
     25 C           3.1966   -1.1981   -3.3859 C.ar    1  UNL1       -0.0344
     26 H          -1.6117   -2.1400   -0.8857 H       1  UNL1        0.0317
     27 H          -1.6274   -2.1842    0.8976 H       1  UNL1        0.0317
     28 H          -3.2628   -0.5149   -0.8460 H       1  UNL1        0.0333
     29 H          -3.2398   -0.5162    0.9367 H       1  UNL1        0.0333
     30 H          -4.0265    2.9294   -0.0155 H       1  UNL1        0.3278
     31 H           1.1763   -2.3764    0.0356 H       1  UNL1        0.0627
     32 H           2.7675    1.6521    0.0332 H       1  UNL1        0.0624
     33 H           0.4471    2.5675    0.0563 H       1  UNL1        0.0624
     34 H           4.5699   -0.3533    1.8193 H       1  UNL1        0.0854
     35 H           5.9918   -2.6287   -2.5932 H       1  UNL1        0.0532
     36 H           7.1974   -2.2076   -1.3653 H       1  UNL1        0.0532
     37 H           7.3571   -4.5768   -1.5192 H       1  UNL1        0.0575
     38 H           6.3903   -4.3460   -0.0541 H       1  UNL1        0.0575
     39 H           4.7629   -5.2439   -1.0225 H       1  UNL1        0.2095
     40 H           2.8207   -4.1358   -1.7231 H       1  UNL1        0.0639
     41 H           1.7834   -4.7020   -3.9068 H       1  UNL1        0.0830
     42 H           2.4635   -0.9227   -5.3935 H       1  UNL1        0.0830
     43 H           3.5715   -0.1852   -3.2887 H       1  UNL1        0.0639
@<TRIPOS>BOND
     1     1     2    1
     2     2     3    1
     3     3     4    2
     4     4     5    1
     5     3     6    1
     6     6     7   ar
     7     1     7    1
     8     7     8   ar
     9     8     9   ar
    10     9    10   ar
    11    10    11   ar
    12     6    11   ar
    13     9    12    1
    14    12    13   ar
    15    13    14   ar
    16    14    15   ar
    17    15    16   ar
    18    12    16   ar
    19    14    17    1
    20    17    18    1
    21    18    19    1
    22    13    20    1
    23    20    21   ar
    24    21    22   ar
    25    22    23   ar
    26    23    24   ar
    27    24    25   ar
    28    20    25   ar
    29     1    26    1
    30     1    27    1
    31     2    28    1
    32     2    29    1
    33     5    30    1
    34     8    31    1
    35    10    32    1
    36    11    33    1
    37    16    34    1
    38    17    35    1
    39    17    36    1
    40    18    37    1
    41    18    38    1
    42    19    39    1
    43    21    40    1
    44    22    41    1
    45    24    42    1
    46    25    43    1
@<TRIPOS>MOLECULE
mol_11717001_10
 43 46 0 0 0
SMALL
GASTEIGER

@<TRIPOS>ATOM
      1 C          -1.4378   -1.5142    0.0276 C.3     1  UNL1       -0.0215
      2 C          -2.5486   -0.4550    0.0393 C.3     1  UNL1       -0.0027
      3 C          -1.8285    0.8738    0.0563 C.2     1  UNL1        0.0876
      4 N          -2.3665    2.0522    0.0351 N.2     1  UNL1       -0.0915
      5 O          -3.7614    1.9489   -0.0088 O.2     1  UNL1       -0.4090
      6 C          -0.3928    0.6503    0.1024 C.ar    1  UNL1        0.0026
      7 C          -0.1734   -0.7203    0.0915 C.ar    1  UNL1       -0.0375
      8 C           1.1212   -1.2098    0.1035 C.ar    1  UNL1       -0.0501
      9 C           2.1941   -0.3012    0.1147 C.ar    1  UNL1       -0.0140
     10 C           1.9505    1.0858    0.1412 C.ar    1  UNL1       -0.0533
     11 C           0.6393    1.5732    0.1334 C.ar    1  UNL1       -0.0519
     12 C           3.5417   -0.8196    0.0025 C.ar    1  UNL1        0.0275
     13 C           4.5427   -0.6333    0.9284 C.ar    1  UNL1        0.0339
     14 N           5.5992   -1.3725    0.4828 N.ar    1  UNL1       -0.2681
     15 N           5.3527   -2.0386   -0.6659 N.ar    1  UNL1       -0.1705
     16 C           4.1024   -1.6769   -0.9922 C.ar    1  UNL1        0.1005
     17 C           3.4458   -2.1572   -2.2018 C.ar    1  UNL1        0.0056
     18 C           2.8769   -1.2488   -3.0973 C.ar    1  UNL1       -0.0343
     19 C           2.1732   -1.7479   -4.1781 C.ar    1  UNL1        0.0282
     20 N           2.0051   -3.0655   -4.4171 N.ar    1  UNL1       -0.2632
     21 C           2.5821   -3.9221   -3.5457 C.ar    1  UNL1        0.0282
     22 C           3.3096   -3.5237   -2.4376 C.ar    1  UNL1       -0.0343
     23 C           6.8888   -1.5380    1.1348 C.3     1  UNL1        0.0646
     24 C           7.1347   -2.9905    1.5305 C.3     1  UNL1        0.0637
     25 O           7.3873   -3.8105    0.3906 O.3     1  UNL1       -0.3932
     26 H          -1.4762   -2.1060   -0.8932 H       1  UNL1        0.0317
     27 H          -1.5264   -2.1852    0.8880 H       1  UNL1        0.0317
     28 H          -3.1803   -0.5370   -0.8508 H       1  UNL1        0.0333
     29 H          -3.1749   -0.5513    0.9320 H       1  UNL1        0.0333
     30 H          -4.0394    2.8833   -0.0269 H       1  UNL1        0.3278
     31 H           1.2978   -2.2822    0.0772 H       1  UNL1        0.0627
     32 H           2.7800    1.7895    0.1330 H       1  UNL1        0.0624
     33 H           0.4332    2.6386    0.1316 H       1  UNL1        0.0624
     34 H           4.5787   -0.0781    1.8555 H       1  UNL1        0.0833
     35 H           2.9663   -0.1774   -2.9540 H       1  UNL1        0.0639
     36 H           1.7049   -1.0809   -4.8963 H       1  UNL1        0.0830
     37 H           2.4280   -4.9749   -3.7641 H       1  UNL1        0.0830
     38 H           3.7355   -4.2582   -1.7633 H       1  UNL1        0.0639
     39 H           7.6442   -1.1832    0.4252 H       1  UNL1        0.0531
     40 H           6.8981   -0.8943    2.0204 H       1  UNL1        0.0531
     41 H           8.0174   -3.0550    2.1742 H       1  UNL1        0.0575
     42 H           6.2833   -3.4113    2.0758 H       1  UNL1        0.0575
     43 H           6.7018   -3.5791   -0.2753 H       1  UNL1        0.2095
@<TRIPOS>BOND
     1     1     2    1
     2     2     3    1
     3     3     4    2
     4     4     5    1
     5     3     6    1
     6     6     7   ar
     7     1     7    1
     8     7     8   ar
     9     8     9   ar
    10     9    10   ar
    11    10    11   ar
    12     6    11   ar
    13     9    12    1
    14    12    13   ar
    15    13    14   ar
    16    14    15   ar
    17    15    16   ar
    18    12    16   ar
    19    16    17    1
    20    17    18   ar
    21    18    19   ar
    22    19    20   ar
    23    20    21   ar
    24    21    22   ar
    25    17    22   ar
    26    14    23    1
    27    23    24    1
    28    24    25    1
    29     1    26    1
    30     1    27    1
    31     2    28    1
    32     2    29    1
    33     5    30    1
    34     8    31    1
    35    10    32    1
    36    11    33    1
    37    13    34    1
    38    18    35    1
    39    19    36    1
    40    21    37    1
    41    22    38    1
    42    23    39    1
    43    23    40    1
    44    24    41    1
    45    24    42    1
    46    25    43    1
@<TRIPOS>MOLECULE
mol_44587235_11
 57 61 0 0 0
SMALL
GASTEIGER

@<TRIPOS>ATOM
      1 C           1.0688    0.1720   -0.0246 C.3     1  UNL1       -0.0155
      2 N           0.5613   -0.2305    1.2822 N.3     1  UNL1       -0.3162
      3 C          -0.9067   -0.2254    1.3262 C.3     1  UNL1        0.0093
      4 C          -1.4036   -1.4787    2.0591 C.3     1  UNL1       -0.0374
      5 C          -2.9241   -1.4862    2.1461 C.3     1  UNL1       -0.0497
      6 C          -3.4417   -0.2295    2.8330 C.3     1  UNL1       -0.0304
      7 C          -2.9360    1.0675    2.1636 C.3     1  UNL1        0.0541
      8 C          -1.4007    1.0488    2.0333 C.3     1  UNL1       -0.0150
      9 N          -3.4172    2.2760    2.8438 N.ar    1  UNL1       -0.2672
     10 C          -3.2361    3.5748    2.4444 C.ar    1  UNL1        0.0341
     11 C          -3.9140    4.3536    3.3578 C.ar    1  UNL1        0.0275
     12 C          -4.5284    3.4275    4.2495 C.ar    1  UNL1        0.1005
     13 N          -4.1877    2.1698    3.9444 N.ar    1  UNL1       -0.1703
     14 C          -5.4192    3.7158    5.3655 C.ar    1  UNL1        0.0056
     15 C          -5.1058    3.2733    6.6492 C.ar    1  UNL1       -0.0343
     16 C          -5.9663    3.6062    7.6803 C.ar    1  UNL1        0.0282
     17 N          -7.0973    4.3269    7.5148 N.ar    1  UNL1       -0.2632
     18 C          -7.3862    4.7258    6.2576 C.ar    1  UNL1        0.0282
     19 C          -6.5873    4.4522    5.1619 C.ar    1  UNL1       -0.0343
     20 C          -3.9183    5.8033    3.3890 C.ar    1  UNL1       -0.0140
     21 C          -3.5187    6.4528    4.5712 C.ar    1  UNL1       -0.0501
     22 C          -3.6172    7.8324    4.6502 C.ar    1  UNL1       -0.0375
     23 C          -4.0989    8.5528    3.5660 C.ar    1  UNL1        0.0026
     24 C          -4.4846    7.9494    2.3806 C.ar    1  UNL1       -0.0519
     25 C          -4.3890    6.5553    2.2947 C.ar    1  UNL1       -0.0533
     26 C          -4.1222    9.9589    3.9367 C.2     1  UNL1        0.0876
     27 N          -4.5431   10.8985    3.1499 N.2     1  UNL1       -0.0915
     28 O          -4.4474   12.1428    3.7837 O.2     1  UNL1       -0.4090
     29 C          -3.5928   10.1216    5.3430 C.3     1  UNL1       -0.0027
     30 C          -3.2848    8.6965    5.8237 C.3     1  UNL1       -0.0215
     31 H           0.7216    1.1722   -0.3006 H       1  UNL1        0.0388
     32 H           0.7683   -0.5402   -0.8009 H       1  UNL1        0.0388
     33 H           2.1627    0.1940    0.0007 H       1  UNL1        0.0388
     34 H           0.9208   -1.1628    1.4898 H       1  UNL1        0.1219
     35 H          -1.3228   -0.2547    0.3096 H       1  UNL1        0.0461
     36 H          -1.0717   -2.3823    1.5327 H       1  UNL1        0.0280
     37 H          -0.9796   -1.5237    3.0710 H       1  UNL1        0.0280
     38 H          -3.2564   -2.3712    2.7005 H       1  UNL1        0.0266
     39 H          -3.3530   -1.5590    1.1394 H       1  UNL1        0.0266
     40 H          -3.1264   -0.2532    3.8851 H       1  UNL1        0.0286
     41 H          -4.5386   -0.2521    2.8318 H       1  UNL1        0.0286
     42 H          -3.3729    1.1237    1.1569 H       1  UNL1        0.0545
     43 H          -0.9492    1.1260    3.0323 H       1  UNL1        0.0301
     44 H          -1.0627    1.9298    1.4729 H       1  UNL1        0.0301
     45 H          -2.6305    3.8277    1.5855 H       1  UNL1        0.0833
     46 H          -4.2104    2.6920    6.8398 H       1  UNL1        0.0639
     47 H          -5.7617    3.2952    8.7005 H       1  UNL1        0.0830
     48 H          -8.3081    5.2900    6.1498 H       1  UNL1        0.0830
     49 H          -6.8752    4.7995    4.1757 H       1  UNL1        0.0639
     50 H          -3.1552    5.8842    5.4237 H       1  UNL1        0.0627
     51 H          -4.8646    8.5409    1.5540 H       1  UNL1        0.0624
     52 H          -4.7127    6.0557    1.3844 H       1  UNL1        0.0624
     53 H          -4.7952   12.7503    3.1048 H       1  UNL1        0.3278
     54 H          -4.3429   10.5993    5.9813 H       1  UNL1        0.0333
     55 H          -2.6883   10.7383    5.3329 H       1  UNL1        0.0333
     56 H          -3.9076    8.4356    6.6859 H       1  UNL1        0.0317
     57 H          -2.2304    8.5966    6.1006 H       1  UNL1        0.0317
@<TRIPOS>BOND
     1     1     2    1
     2     2     3    1
     3     3     4    1
     4     4     5    1
     5     5     6    1
     6     6     7    1
     7     7     8    1
     8     3     8    1
     9     7     9    1
    10     9    10   ar
    11    10    11   ar
    12    11    12   ar
    13    12    13   ar
    14     9    13   ar
    15    12    14    1
    16    14    15   ar
    17    15    16   ar
    18    16    17   ar
    19    17    18   ar
    20    18    19   ar
    21    14    19   ar
    22    11    20    1
    23    20    21   ar
    24    21    22   ar
    25    22    23   ar
    26    23    24   ar
    27    24    25   ar
    28    20    25   ar
    29    23    26    1
    30    26    27    2
    31    27    28    1
    32    26    29    1
    33    29    30    1
    34    22    30    1
    35     1    31    1
    36     1    32    1
    37     1    33    1
    38     2    34    1
    39     3    35    1
    40     4    36    1
    41     4    37    1
    42     5    38    1
    43     5    39    1
    44     6    40    1
    45     6    41    1
    46     7    42    1
    47     8    43    1
    48     8    44    1
    49    10    45    1
    50    15    46    1
    51    16    47    1
    52    18    48    1
    53    19    49    1
    54    21    50    1
    55    24    51    1
    56    25    52    1
    57    28    53    1
    58    29    54    1
    59    29    55    1
    60    30    56    1
    61    30    57    1
@<TRIPOS>MOLECULE
mol_60146017_12
 43 46 0 0 0
SMALL
GASTEIGER

@<TRIPOS>ATOM
      1 C          -2.5384   -0.5983    0.0328 C.3     1  UNL1        0.0043
      2 C          -1.9826    0.8315    0.1357 C.3     1  UNL1        0.0189
      3 C          -0.5069    0.6377    0.3121 C.ar    1  UNL1       -0.0305
      4 C           0.4442    1.6093    0.6108 C.ar    1  UNL1       -0.0574
      5 C           1.7856    1.2324    0.7180 C.ar    1  UNL1       -0.0614
      6 C           2.1642   -0.1076    0.5658 C.ar    1  UNL1       -0.0611
      7 C           1.2037   -1.0916    0.3261 C.ar    1  UNL1       -0.0525
      8 C          -0.1229   -0.7047    0.2133 C.ar    1  UNL1        0.0032
      9 C          -1.3319   -1.5046    0.0169 C.2     1  UNL1        0.0882
     10 N          -1.5141   -2.7808   -0.1265 N.2     1  UNL1       -0.0915
     11 O          -0.3323   -3.5154   -0.0952 O.2     1  UNL1       -0.4090
     12 C          -2.3282    1.6634   -1.0735 C.ar    1  UNL1        0.0057
     13 C          -3.6296    2.0812   -1.3256 C.ar    1  UNL1        0.0299
     14 N          -3.6123    2.7700   -2.4939 N.ar    1  UNL1       -0.2684
     15 N          -2.3832    2.9087   -3.0059 N.ar    1  UNL1       -0.1709
     16 C          -1.5866    2.2042   -2.1833 C.ar    1  UNL1        0.0966
     17 C          -0.1684    2.1284   -2.5080 C.ar    1  UNL1        0.0052
     18 C           0.4293    0.9164   -2.8456 C.ar    1  UNL1       -0.0343
     19 C           1.7909    0.9120   -3.0985 C.ar    1  UNL1        0.0282
     20 N           2.5702    2.0160   -3.0632 N.ar    1  UNL1       -0.2632
     21 C           1.9560    3.1825   -2.7729 C.ar    1  UNL1        0.0282
     22 C           0.6051    3.2915   -2.4957 C.ar    1  UNL1       -0.0343
     23 C          -4.7510    3.3285   -3.2042 C.3     1  UNL1        0.0646
     24 C          -4.6294    4.8382   -3.3753 C.3     1  UNL1        0.0637
     25 O          -3.6185    5.1810   -4.3212 O.3     1  UNL1       -0.3932
     26 H          -3.1450   -0.7742   -0.8624 H       1  UNL1        0.0338
     27 H          -3.1444   -0.8423    0.9134 H       1  UNL1        0.0338
     28 H          -2.3897    1.3167    1.0325 H       1  UNL1        0.0402
     29 H           0.1631    2.6526    0.7217 H       1  UNL1        0.0621
     30 H           2.5477    1.9866    0.9011 H       1  UNL1        0.0618
     31 H           3.2141   -0.3829    0.6368 H       1  UNL1        0.0618
     32 H           1.5099   -2.1264    0.2334 H       1  UNL1        0.0624
     33 H          -0.6566   -4.4330   -0.1633 H       1  UNL1        0.3278
     34 H          -4.5477    1.9118   -0.7791 H       1  UNL1        0.0829
     35 H          -0.1393   -0.0049   -2.8929 H       1  UNL1        0.0639
     36 H           2.3100   -0.0119   -3.3358 H       1  UNL1        0.0830
     37 H           2.6006    4.0566   -2.7640 H       1  UNL1        0.0830
     38 H           0.1659    4.2565   -2.2677 H       1  UNL1        0.0639
     39 H          -4.7915    2.8193   -4.1736 H       1  UNL1        0.0531
     40 H          -5.6520    3.0809   -2.6335 H       1  UNL1        0.0531
     41 H          -5.5732    5.2437   -3.7530 H       1  UNL1        0.0575
     42 H          -4.3992    5.3356   -2.4274 H       1  UNL1        0.0575
     43 H          -2.8322    4.6339   -4.0983 H       1  UNL1        0.2095
@<TRIPOS>BOND
     1     1     2    1
     2     2     3    1
     3     3     4   ar
     4     4     5   ar
     5     5     6   ar
     6     6     7   ar
     7     7     8   ar
     8     3     8   ar
     9     8     9    1
    10     1     9    1
    11     9    10    2
    12    10    11    1
    13     2    12    1
    14    12    13   ar
    15    13    14   ar
    16    14    15   ar
    17    15    16   ar
    18    12    16   ar
    19    16    17    1
    20    17    18   ar
    21    18    19   ar
    22    19    20   ar
    23    20    21   ar
    24    21    22   ar
    25    17    22   ar
    26    14    23    1
    27    23    24    1
    28    24    25    1
    29     1    26    1
    30     1    27    1
    31     2    28    1
    32     4    29    1
    33     5    30    1
    34     6    31    1
    35     7    32    1
    36    11    33    1
    37    13    34    1
    38    18    35    1
    39    19    36    1
    40    21    37    1
    41    22    38    1
    42    23    39    1
    43    23    40    1
    44    24    41    1
    45    24    42    1
    46    25    43    1
@<TRIPOS>MOLECULE
mol_11639637_13
 54 58 0 0 0
SMALL
GASTEIGER

@<TRIPOS>ATOM
      1 C          -2.3692   -0.0062   -0.1157 C.3     1  UNL1       -0.0128
      2 N          -0.9557   -0.0010    0.2636 N.3     1  UNL1       -0.3052
      3 C          -0.2898    1.2001   -0.2531 C.3     1  UNL1        0.0005
      4 C           1.1674    1.2511    0.1950 C.3     1  UNL1       -0.0176
      5 C           1.9246   -0.0176   -0.2287 C.3     1  UNL1        0.0550
      6 C           1.1674   -1.2580    0.2624 C.3     1  UNL1       -0.0176
      7 C          -0.2907   -1.2246   -0.1926 C.3     1  UNL1        0.0005
      8 N           3.3242   -0.0367    0.1973 N.ar    1  UNL1       -0.2671
      9 C           4.2628   -0.9729   -0.1502 C.ar    1  UNL1        0.0341
     10 C           5.4279   -0.5944    0.4779 C.ar    1  UNL1        0.0275
     11 C           5.1135    0.6294    1.1365 C.ar    1  UNL1        0.1005
     12 N           3.8215    0.9442    0.9754 N.ar    1  UNL1       -0.1703
     13 C           6.0127    1.4784    1.9056 C.ar    1  UNL1        0.0056
     14 C           5.7342    1.7766    3.2378 C.ar    1  UNL1       -0.0343
     15 C           6.6508    2.5409    3.9379 C.ar    1  UNL1        0.0282
     16 N           7.7947    3.0233    3.4037 N.ar    1  UNL1       -0.2632
     17 C           8.0286    2.7357    2.1055 C.ar    1  UNL1        0.0282
     18 C           7.1806    1.9732    1.3229 C.ar    1  UNL1       -0.0343
     19 C           6.6539   -1.3658    0.4920 C.ar    1  UNL1       -0.0140
     20 C           7.1878   -1.7584    1.7322 C.ar    1  UNL1       -0.0501
     21 C           8.4022   -2.4235    1.7621 C.ar    1  UNL1       -0.0375
     22 C           9.0693   -2.6953    0.5754 C.ar    1  UNL1        0.0026
     23 C           8.5664   -2.3368   -0.6641 C.ar    1  UNL1       -0.0519
     24 C           7.3393   -1.6653   -0.7016 C.ar    1  UNL1       -0.0533
     25 C          10.3156   -3.3676    0.9057 C.2     1  UNL1        0.0876
     26 N          11.1836   -3.7385    0.0182 N.2     1  UNL1       -0.0915
     27 O          12.2787   -4.3530    0.6361 O.2     1  UNL1       -0.4090
     28 C          10.4141   -3.5462    2.4033 C.3     1  UNL1       -0.0027
     29 C           9.1464   -2.8921    2.9705 C.3     1  UNL1       -0.0215
     30 H          -2.8774    0.8790    0.2829 H       1  UNL1        0.0391
     31 H          -2.5054   -0.0224   -1.2030 H       1  UNL1        0.0391
     32 H          -2.8796   -0.8776    0.3094 H       1  UNL1        0.0391
     33 H          -0.3422    1.2374   -1.3491 H       1  UNL1        0.0427
     34 H          -0.7946    2.0967    0.1273 H       1  UNL1        0.0427
     35 H           1.2021    1.3677    1.2870 H       1  UNL1        0.0298
     36 H           1.6458    2.1405   -0.2334 H       1  UNL1        0.0298
     37 H           1.9672   -0.0397   -1.3268 H       1  UNL1        0.0545
     38 H           1.2143   -1.3181    1.3581 H       1  UNL1        0.0298
     39 H           1.6360   -2.1731   -0.1193 H       1  UNL1        0.0298
     40 H          -0.7985   -2.1023    0.2255 H       1  UNL1        0.0427
     41 H          -0.3393   -1.3120   -1.2862 H       1  UNL1        0.0427
     42 H           4.0154   -1.8280   -0.7633 H       1  UNL1        0.0833
     43 H           4.8331    1.4123    3.7188 H       1  UNL1        0.0639
     44 H           6.4880    2.7903    4.9823 H       1  UNL1        0.0830
     45 H           8.9476    3.1462    1.6969 H       1  UNL1        0.0830
     46 H           7.4253    1.7749    0.2852 H       1  UNL1        0.0639
     47 H           6.6674   -1.5324    2.6596 H       1  UNL1        0.0627
     48 H           9.1165   -2.5584   -1.5727 H       1  UNL1        0.0624
     49 H           6.9335   -1.3514   -1.6608 H       1  UNL1        0.0624
     50 H          12.8525   -4.5685   -0.1224 H       1  UNL1        0.3278
     51 H          11.3151   -3.0578    2.7878 H       1  UNL1        0.0333
     52 H          10.4525   -4.6119    2.6511 H       1  UNL1        0.0333
     53 H           9.4024   -2.0483    3.6199 H       1  UNL1        0.0317
     54 H           8.5550   -3.6158    3.5406 H       1  UNL1        0.0317
@<TRIPOS>BOND
     1     1     2    1
     2     2     3    1
     3     3     4    1
     4     4     5    1
     5     5     6    1
     6     6     7    1
     7     2     7    1
     8     5     8    1
     9     8     9   ar
    10     9    10   ar
    11    10    11   ar
    12    11    12   ar
    13     8    12   ar
    14    11    13    1
    15    13    14   ar
    16    14    15   ar
    17    15    16   ar
    18    16    17   ar
    19    17    18   ar
    20    13    18   ar
    21    10    19    1
    22    19    20   ar
    23    20    21   ar
    24    21    22   ar
    25    22    23   ar
    26    23    24   ar
    27    19    24   ar
    28    22    25    1
    29    25    26    2
    30    26    27    1
    31    25    28    1
    32    28    29    1
    33    21    29    1
    34     1    30    1
    35     1    31    1
    36     1    32    1
    37     3    33    1
    38     3    34    1
    39     4    35    1
    40     4    36    1
    41     5    37    1
    42     6    38    1
    43     6    39    1
    44     7    40    1
    45     7    41    1
    46     9    42    1
    47    14    43    1
    48    15    44    1
    49    17    45    1
    50    18    46    1
    51    20    47    1
    52    23    48    1
    53    24    49    1
    54    27    50    1
    55    28    51    1
    56    28    52    1
    57    29    53    1
    58    29    54    1
@<TRIPOS>MOLECULE
mol_74627710_14
 45 48 0 0 0
SMALL
GASTEIGER

@<TRIPOS>ATOM
      1 C           2.5053   -0.0681   -0.1979 C.3     1  UNL1       -0.0273
      2 C           1.6656   -1.2644    0.2719 C.3     1  UNL1       -0.0256
      3 C           0.2816   -0.7181    0.1099 C.ar    1  UNL1       -0.0420
      4 C           0.3051    0.6821    0.0512 C.ar    1  UNL1       -0.0251
      5 C           1.7138    1.2094    0.1603 C.3     1  UNL1        0.0581
      6 N           2.0539    1.6578    1.5172 N.3     1  UNL1       -0.1968
      7 O           1.3929    2.9426    1.6991 O.3     1  UNL1       -0.3145
      8 C          -0.8685    1.4068   -0.0731 C.ar    1  UNL1       -0.0562
      9 C          -2.0756    0.7082   -0.1555 C.ar    1  UNL1       -0.0536
     10 C          -2.1038   -0.7003   -0.1022 C.ar    1  UNL1       -0.0141
     11 C          -0.9121   -1.4217    0.0483 C.ar    1  UNL1       -0.0504
     12 C          -3.3703   -1.3937   -0.2403 C.ar    1  UNL1        0.0275
     13 C          -3.8695   -2.2739    0.6933 C.ar    1  UNL1        0.0339
     14 N          -5.0921   -2.6550    0.2315 N.ar    1  UNL1       -0.2681
     15 N          -5.4344   -2.0764   -0.9368 N.ar    1  UNL1       -0.1705
     16 C          -4.3717   -1.3181   -1.2581 C.ar    1  UNL1        0.1005
     17 C          -4.3438   -0.5554   -2.5031 C.ar    1  UNL1        0.0056
     18 C          -3.2058   -0.5521   -3.3125 C.ar    1  UNL1       -0.0343
     19 C          -3.2256    0.2037   -4.4716 C.ar    1  UNL1        0.0282
     20 N          -4.2839    0.9409   -4.8693 N.ar    1  UNL1       -0.2632
     21 C          -5.3771    0.9108   -4.0767 C.ar    1  UNL1        0.0282
     22 C          -5.4574    0.1850   -2.9009 C.ar    1  UNL1       -0.0343
     23 C          -6.0236   -3.5703    0.8711 C.3     1  UNL1        0.0646
     24 C          -7.3770   -2.9135    1.1227 C.3     1  UNL1        0.0637
     25 O          -8.1077   -2.7423   -0.0910 O.3     1  UNL1       -0.3932
     26 H           2.6145   -0.1189   -1.2914 H       1  UNL1        0.0287
     27 H           3.5196   -0.0842    0.2160 H       1  UNL1        0.0287
     28 H           1.8433   -2.1445   -0.3523 H       1  UNL1        0.0314
     29 H           1.8594   -1.5020    1.3227 H       1  UNL1        0.0314
     30 H           1.9203    1.9904   -0.5804 H       1  UNL1        0.0533
     31 H           1.5601    1.0642    2.1898 H       1  UNL1        0.1542
     32 H           2.1339    3.5107    1.9872 H       1  UNL1        0.2363
     33 H          -0.8532    2.4918   -0.1051 H       1  UNL1        0.0621
     34 H          -3.0009    1.2717   -0.2604 H       1  UNL1        0.0624
     35 H          -0.9143   -2.5064    0.0908 H       1  UNL1        0.0626
     36 H          -3.4714   -2.6334    1.6332 H       1  UNL1        0.0833
     37 H          -2.3222   -1.1267   -3.0574 H       1  UNL1        0.0639
     38 H          -2.3635    0.2358   -5.1318 H       1  UNL1        0.0830
     39 H          -6.2156    1.5083   -4.4225 H       1  UNL1        0.0830
     40 H          -6.3641    0.2027   -2.3058 H       1  UNL1        0.0639
     41 H          -6.1160   -4.4344    0.2042 H       1  UNL1        0.0531
     42 H          -5.5751   -3.8919    1.8167 H       1  UNL1        0.0531
     43 H          -7.9827   -3.5495    1.7753 H       1  UNL1        0.0575
     44 H          -7.2702   -1.9346    1.6020 H       1  UNL1        0.0575
     45 H          -7.4808   -2.3375   -0.7317 H       1  UNL1        0.2095
@<TRIPOS>BOND
     1     1     2    1
     2     2     3    1
     3     3     4   ar
     4     4     5    1
     5     1     5    1
     6     5     6    1
     7     6     7    1
     8     4     8   ar
     9     8     9   ar
    10     9    10   ar
    11    10    11   ar
    12     3    11   ar
    13    10    12    1
    14    12    13   ar
    15    13    14   ar
    16    14    15   ar
    17    15    16   ar
    18    12    16   ar
    19    16    17    1
    20    17    18   ar
    21    18    19   ar
    22    19    20   ar
    23    20    21   ar
    24    21    22   ar
    25    17    22   ar
    26    14    23    1
    27    23    24    1
    28    24    25    1
    29     1    26    1
    30     1    27    1
    31     2    28    1
    32     2    29    1
    33     5    30    1
    34     6    31    1
    35     7    32    1
    36     8    33    1
    37     9    34    1
    38    11    35    1
    39    13    36    1
    40    18    37    1
    41    19    38    1
    42    21    39    1
    43    22    40    1
    44    23    41    1
    45    23    42    1
    46    24    43    1
    47    24    44    1
    48    25    45    1
@<TRIPOS>MOLECULE
mol_87623644_15
 54 58 0 0 0
SMALL
GASTEIGER

@<TRIPOS>ATOM
      1 C          -2.5047    0.0067    0.0484 C.3     1  UNL1       -0.0623
      2 C          -1.0215    0.0213    0.4234 C.3     1  UNL1       -0.0409
      3 C          -0.3483    1.2914   -0.1351 C.3     1  UNL1       -0.0331
      4 C           1.1811    1.2252   -0.0926 C.3     1  UNL1        0.0299
      5 N           1.5589   -0.0046   -0.7629 N.pl3   1  UNL1       -0.2554
      6 C           1.1851   -1.1878   -0.0098 C.3     1  UNL1        0.0299
      7 C          -0.3412   -1.2696   -0.0711 C.3     1  UNL1       -0.0331
      8 N           2.8364   -0.0343   -1.3299 N.ar    1  UNL1       -0.1879
      9 C           2.9934   -0.5349   -2.5912 C.ar    1  UNL1        0.0555
     10 C           4.2924   -0.2984   -2.9478 C.ar    1  UNL1        0.0294
     11 C           4.8601    0.3739   -1.8272 C.ar    1  UNL1        0.1023
     12 N           3.9730    0.4770   -0.8210 N.ar    1  UNL1       -0.1521
     13 C           6.2162    0.9082   -1.7537 C.ar    1  UNL1        0.0056
     14 C           7.1051    0.4752   -0.7736 C.ar    1  UNL1       -0.0343
     15 C           8.4169    0.9149   -0.8478 C.ar    1  UNL1        0.0282
     16 N           8.8841    1.7459   -1.8066 N.ar    1  UNL1       -0.2632
     17 C           7.9961    2.1709   -2.7286 C.ar    1  UNL1        0.0282
     18 C           6.6677    1.7873   -2.7435 C.ar    1  UNL1       -0.0343
     19 C           4.8629   -0.6938   -4.2146 C.ar    1  UNL1       -0.0140
     20 C           6.0287   -1.4746   -4.2233 C.ar    1  UNL1       -0.0501
     21 C           6.6015   -1.7997   -5.4401 C.ar    1  UNL1       -0.0375
     22 C           6.0177   -1.3570   -6.6202 C.ar    1  UNL1        0.0026
     23 C           4.8601   -0.5999   -6.6481 C.ar    1  UNL1       -0.0519
     24 C           4.2764   -0.2682   -5.4245 C.ar    1  UNL1       -0.0533
     25 C           6.8400   -1.8134   -7.7263 C.2     1  UNL1        0.0876
     26 N           6.5786   -1.5405   -8.9660 N.2     1  UNL1       -0.0915
     27 O           7.5477   -2.1029   -9.8028 O.2     1  UNL1       -0.4090
     28 C           8.0034   -2.6172   -7.1951 C.3     1  UNL1       -0.0027
     29 C           7.8466   -2.5927   -5.6680 C.3     1  UNL1       -0.0215
     30 H          -3.0144    0.8955    0.4333 H       1  UNL1        0.0232
     31 H          -2.6354   -0.0089   -1.0404 H       1  UNL1        0.0232
     32 H          -3.0039   -0.8777    0.4568 H       1  UNL1        0.0232
     33 H          -0.9388    0.0473    1.5175 H       1  UNL1        0.0299
     34 H          -0.6593    1.4418   -1.1783 H       1  UNL1        0.0283
     35 H          -0.6954    2.1697    0.4221 H       1  UNL1        0.0283
     36 H           1.5470    1.2586    0.9418 H       1  UNL1        0.0480
     37 H           1.5782    2.1079   -0.6083 H       1  UNL1        0.0480
     38 H           1.5400   -1.1466    1.0278 H       1  UNL1        0.0480
     39 H           1.5961   -2.1020   -0.4557 H       1  UNL1        0.0480
     40 H          -0.6905   -2.1252    0.5190 H       1  UNL1        0.0283
     41 H          -0.6391   -1.4673   -1.1107 H       1  UNL1        0.0283
     42 H           2.1664   -0.9977   -3.1096 H       1  UNL1        0.0852
     43 H           6.7953   -0.2098    0.0073 H       1  UNL1        0.0639
     44 H           9.1582    0.5890   -0.1238 H       1  UNL1        0.0830
     45 H           8.3939    2.8390   -3.4875 H       1  UNL1        0.0830
     46 H           6.0078    2.1512   -3.5242 H       1  UNL1        0.0639
     47 H           6.4838   -1.8128   -3.2961 H       1  UNL1        0.0627
     48 H           4.4306   -0.2678   -7.5873 H       1  UNL1        0.0624
     49 H           3.3748    0.3414   -5.4141 H       1  UNL1        0.0624
     50 H           7.2511   -1.8149  -10.6860 H       1  UNL1        0.3278
     51 H           8.9505   -2.1614   -7.4999 H       1  UNL1        0.0333
     52 H           7.9579   -3.6411   -7.5793 H       1  UNL1        0.0333
     53 H           8.7070   -2.1075   -5.1954 H       1  UNL1        0.0317
     54 H           7.7433   -3.6069   -5.2686 H       1  UNL1        0.0317
@<TRIPOS>BOND
     1     1     2    1
     2     2     3    1
     3     3     4    1
     4     4     5    1
     5     5     6    1
     6     6     7    1
     7     2     7    1
     8     5     8    1
     9     8     9   ar
    10     9    10   ar
    11    10    11   ar
    12    11    12   ar
    13     8    12   ar
    14    11    13    1
    15    13    14   ar
    16    14    15   ar
    17    15    16   ar
    18    16    17   ar
    19    17    18   ar
    20    13    18   ar
    21    10    19    1
    22    19    20   ar
    23    20    21   ar
    24    21    22   ar
    25    22    23   ar
    26    23    24   ar
    27    19    24   ar
    28    22    25    1
    29    25    26    2
    30    26    27    1
    31    25    28    1
    32    28    29    1
    33    21    29    1
    34     1    30    1
    35     1    31    1
    36     1    32    1
    37     2    33    1
    38     3    34    1
    39     3    35    1
    40     4    36    1
    41     4    37    1
    42     6    38    1
    43     6    39    1
    44     7    40    1
    45     7    41    1
    46     9    42    1
    47    14    43    1
    48    15    44    1
    49    17    45    1
    50    18    46    1
    51    20    47    1
    52    23    48    1
    53    24    49    1
    54    27    50    1
    55    28    51    1
    56    28    52    1
    57    29    53    1
    58    29    54    1
