@<TRIPOS>MOLECULE
mol_58087463_0
 50 52 0 0 0
SMALL
GASTEIGER

@<TRIPOS>ATOM
      1 C           0.7138   -1.5956   -0.7800 C.3     1  UNL1       -0.0637
      2 C           0.5245   -2.4622    0.4563 C.3     1  UNL1       -0.0347
      3 C           1.2246   -1.9480    1.7187 C.3     1  UNL1        0.0845
      4 S           0.2903   -0.7235    2.6702 S.O2    1  UNL1        0.0432
      5 O          -0.8499   -0.2717    1.8993 O.2     1  UNL1       -0.1552
      6 O           0.1100   -1.2547    4.0032 O.2     1  UNL1       -0.1552
      7 N           1.3475    0.5744    2.8618 N.pl3   1  UNL1       -0.2178
      8 C           1.9985    1.2049    1.7565 C.ar    1  UNL1        0.0837
      9 C           3.2680    1.7806    1.9366 C.ar    1  UNL1        0.1592
     10 C           4.0055    2.2717    0.8497 C.ar    1  UNL1        0.0944
     11 C           3.4754    2.0601   -0.4223 C.ar    1  UNL1        0.1371
     12 C           2.1673    1.6287   -0.5926 C.ar    1  UNL1       -0.0238
     13 C           1.3980    1.2951    0.5110 C.ar    1  UNL1       -0.0338
     14 F           4.1929    2.2360   -1.5369 F       1  UNL1       -0.2046
     15 C           5.3194    2.9386    1.0669 C.2     1  UNL1        0.2008
     16 O           5.8372    2.9069    2.1786 O.2     1  UNL1       -0.2864
     17 C           6.0155    3.5633   -0.0563 C.ar    1  UNL1        0.0490
     18 C           7.3335    3.2642   -0.3712 C.ar    1  UNL1        0.0150
     19 N           7.6413    3.8711   -1.5578 N.ar    1  UNL1       -0.3451
     20 C           6.5684    4.5892   -2.0019 C.ar    1  UNL1        0.1388
     21 C           5.5595    4.5003   -1.0483 C.ar    1  UNL1        0.0297
     22 C           4.3855    5.2428   -1.3014 C.ar    1  UNL1       -0.0457
     23 C           4.2810    5.9373   -2.5178 C.ar    1  UNL1       -0.0280
     24 C           5.3675    5.8841   -3.3924 C.ar    1  UNL1        0.0331
     25 N           6.5396    5.2467   -3.1732 N.ar    1  UNL1       -0.2372
     26 C           3.0447    6.7204   -2.8909 C.3     1  UNL1       -0.0162
     27 C           1.8516    5.8530   -3.2799 C.3     1  UNL1        0.0488
     28 C           1.0549    5.4633   -2.0725 C.2     1  UNL1        0.3050
     29 O           0.3124    6.1877   -1.4320 O.2     1  UNL1       -0.2510
     30 O           1.2590    4.1952   -1.6871 O.3     1  UNL1       -0.4806
     31 F           3.7676    1.7993    3.1830 F       1  UNL1       -0.2027
     32 H           0.0508   -0.7291   -0.7619 H       1  UNL1        0.0230
     33 H           0.4600   -2.1549   -1.6862 H       1  UNL1        0.0230
     34 H           1.7518   -1.2640   -0.8810 H       1  UNL1        0.0230
     35 H          -0.5458   -2.6169    0.6306 H       1  UNL1        0.0279
     36 H           0.9491   -3.4443    0.2163 H       1  UNL1        0.0279
     37 H           1.3536   -2.7955    2.4033 H       1  UNL1        0.0518
     38 H           2.2247   -1.5638    1.5047 H       1  UNL1        0.0518
     39 H           1.8622    0.5490    3.7476 H       1  UNL1        0.1734
     40 H           1.7569    1.5567   -1.5972 H       1  UNL1        0.0647
     41 H           0.3559    1.0365    0.3616 H       1  UNL1        0.0638
     42 H           8.0494    2.6229    0.1269 H       1  UNL1        0.0815
     43 H           8.5087    3.7916   -2.0677 H       1  UNL1        0.1668
     44 H           3.5752    5.2522   -0.5807 H       1  UNL1        0.0628
     45 H           5.3253    6.3907   -4.3553 H       1  UNL1        0.0833
     46 H           2.7927    7.3978   -2.0657 H       1  UNL1        0.0319
     47 H           3.2844    7.3673   -3.7450 H       1  UNL1        0.0319
     48 H           1.1670    6.4214   -3.9219 H       1  UNL1        0.0381
     49 H           2.1441    4.9639   -3.8503 H       1  UNL1        0.0381
     50 H           0.7055    4.1078   -0.8820 H       1  UNL1        0.2951
@<TRIPOS>BOND
     1     1     2    1
     2     2     3    1
     3     3     4    1
     4     4     5    2
     5     4     6    2
     6     4     7    1
     7     7     8    1
     8     8     9   ar
     9     9    10   ar
    10    10    11   ar
    11    11    12   ar
    12    12    13   ar
    13     8    13   ar
    14    11    14    1
    15    10    15    1
    16    15    16    2
    17    15    17    1
    18    17    18   ar
    19    18    19   ar
    20    19    20   ar
    21    20    21   ar
    22    17    21   ar
    23    21    22   ar
    24    22    23   ar
    25    23    24   ar
    26    24    25   ar
    27    20    25   ar
    28    23    26    1
    29    26    27    1
    30    27    28    1
    31    28    29    2
    32    28    30    1
    33     9    31    1
    34     1    32    1
    35     1    33    1
    36     1    34    1
    37     2    35    1
    38     2    36    1
    39     3    37    1
    40     3    38    1
    41     7    39    1
    42    12    40    1
    43    13    41    1
    44    18    42    1
    45    19    43    1
    46    22    44    1
    47    24    45    1
    48    26    46    1
    49    26    47    1
    50    27    48    1
    51    27    49    1
    52    30    50    1
@<TRIPOS>MOLECULE
mol_58087390_1
 48 50 0 0 0
SMALL
GASTEIGER

@<TRIPOS>ATOM
      1 C           0.5165    1.2102    1.0190 C.3     1  UNL1       -0.0637
      2 C           0.3767    2.3475    0.0212 C.3     1  UNL1       -0.0347
      3 C           1.0703    2.1046   -1.3221 C.3     1  UNL1        0.0845
      4 S           0.1268    1.0969   -2.4933 S.O2    1  UNL1        0.0432
      5 O          -1.0622    0.5850   -1.8488 O.2     1  UNL1       -0.1552
      6 O           0.0304    1.8515   -3.7265 O.2     1  UNL1       -0.1552
      7 N           1.1205   -0.2048   -2.8771 N.pl3   1  UNL1       -0.2178
      8 C           1.7563   -0.9900   -1.8693 C.ar    1  UNL1        0.0837
      9 C           3.1140   -1.3083   -2.0304 C.ar    1  UNL1        0.1592
     10 C           3.8526   -1.9139   -1.0061 C.ar    1  UNL1        0.0944
     11 C           3.1971   -2.0937    0.2102 C.ar    1  UNL1        0.1371
     12 C           1.8157   -1.9469    0.3218 C.ar    1  UNL1       -0.0238
     13 C           1.0817   -1.4431   -0.7463 C.ar    1  UNL1       -0.0338
     14 F           3.8603   -2.3625    1.3395 F       1  UNL1       -0.2046
     15 C           5.2798   -2.2676   -1.2443 C.2     1  UNL1        0.2008
     16 O           5.8115   -1.8831   -2.2831 O.2     1  UNL1       -0.2864
     17 C           6.0750   -3.0112   -0.2650 C.ar    1  UNL1        0.0490
     18 C           7.4152   -2.7152   -0.0447 C.ar    1  UNL1        0.0150
     19 N           7.8720   -3.4838    0.9886 N.ar    1  UNL1       -0.3451
     20 C           6.8735   -4.3054    1.4236 C.ar    1  UNL1        0.1388
     21 C           5.7623   -4.1084    0.6102 C.ar    1  UNL1        0.0300
     22 C           4.6496   -4.9439    0.8576 C.ar    1  UNL1       -0.0418
     23 C           4.6767   -5.8074    1.9619 C.ar    1  UNL1       -0.0060
     24 C           5.8608   -5.8516    2.7035 C.ar    1  UNL1        0.0371
     25 N           6.9941   -5.1473    2.4631 N.ar    1  UNL1       -0.2369
     26 C           3.5323   -6.6386    2.3807 C.2     1  UNL1       -0.0464
     27 C           2.3006   -6.6088    1.8457 C.2     1  UNL1        0.0229
     28 C           1.1883   -7.4517    2.3068 C.2     1  UNL1        0.3296
     29 O           0.0680   -7.4251    1.8250 O.2     1  UNL1       -0.2458
     30 O           1.5016   -8.2699    3.3202 O.3     1  UNL1       -0.4775
     31 F           3.6887   -0.9490   -3.1902 F       1  UNL1       -0.2027
     32 H          -0.1500    0.3837    0.7675 H       1  UNL1        0.0230
     33 H           0.2349    1.5396    2.0239 H       1  UNL1        0.0230
     34 H           1.5489    0.8511    1.0682 H       1  UNL1        0.0230
     35 H          -0.6852    2.5774   -0.1194 H       1  UNL1        0.0279
     36 H           0.8311    3.2328    0.4818 H       1  UNL1        0.0279
     37 H           1.1879    3.0767   -1.8174 H       1  UNL1        0.0518
     38 H           2.0753    1.6932   -1.2026 H       1  UNL1        0.0518
     39 H           1.6696   -0.0341   -3.7252 H       1  UNL1        0.1734
     40 H           1.3281   -2.1752    1.2667 H       1  UNL1        0.0647
     41 H           0.0045   -1.3315   -0.6510 H       1  UNL1        0.0638
     42 H           8.0610   -1.9891   -0.5234 H       1  UNL1        0.0815
     43 H           8.7948   -3.4572    1.3973 H       1  UNL1        0.1668
     44 H           3.7749   -4.8651    0.2248 H       1  UNL1        0.0631
     45 H           5.9397   -6.4976    3.5767 H       1  UNL1        0.0836
     46 H           3.7305   -7.3145    3.2119 H       1  UNL1        0.0626
     47 H           2.0270   -5.9542    1.0282 H       1  UNL1        0.0689
     48 H           0.6687   -8.7554    3.4968 H       1  UNL1        0.2954
@<TRIPOS>BOND
     1     1     2    1
     2     2     3    1
     3     3     4    1
     4     4     5    2
     5     4     6    2
     6     4     7    1
     7     7     8    1
     8     8     9   ar
     9     9    10   ar
    10    10    11   ar
    11    11    12   ar
    12    12    13   ar
    13     8    13   ar
    14    11    14    1
    15    10    15    1
    16    15    16    2
    17    15    17    1
    18    17    18   ar
    19    18    19   ar
    20    19    20   ar
    21    20    21   ar
    22    17    21   ar
    23    21    22   ar
    24    22    23   ar
    25    23    24   ar
    26    24    25   ar
    27    20    25   ar
    28    23    26    1
    29    26    27    2
    30    27    28    1
    31    28    29    2
    32    28    30    1
    33     9    31    1
    34     1    32    1
    35     1    33    1
    36     1    34    1
    37     2    35    1
    38     2    36    1
    39     3    37    1
    40     3    38    1
    41     7    39    1
    42    12    40    1
    43    13    41    1
    44    18    42    1
    45    19    43    1
    46    22    44    1
    47    24    45    1
    48    26    46    1
    49    27    47    1
    50    30    48    1
@<TRIPOS>MOLECULE
mol_58086030_2
 42 44 0 0 0
SMALL
GASTEIGER

@<TRIPOS>ATOM
      1 C           0.5727    0.5700   -1.4520 C.3     1  UNL1       -0.0637
      2 C           0.4258   -0.7361   -2.2074 C.3     1  UNL1       -0.0347
      3 C           1.1335   -1.9216   -1.5542 C.3     1  UNL1        0.0845
      4 S           0.1831   -2.7717   -0.2812 S.O2    1  UNL1        0.0432
      5 O          -1.1814   -2.2857   -0.2888 O.2     1  UNL1       -0.1552
      6 O           0.4502   -4.1869   -0.4368 O.2     1  UNL1       -0.1552
      7 N           0.8322   -2.4291    1.2113 N.pl3   1  UNL1       -0.2178
      8 C           1.6214   -1.2825    1.5016 C.ar    1  UNL1        0.0832
      9 C           2.9825   -1.4766    1.7559 C.ar    1  UNL1        0.1518
     10 C           3.7820   -0.4628    2.2830 C.ar    1  UNL1        0.0292
     11 C           3.2308    0.8167    2.3598 C.ar    1  UNL1        0.1297
     12 C           1.8897    1.0458    2.0501 C.ar    1  UNL1       -0.0242
     13 C           1.0657   -0.0219    1.6763 C.ar    1  UNL1       -0.0338
     14 F           3.9763    1.8397    2.8009 F       1  UNL1       -0.2051
     15 C           5.0896   -0.7960    2.9545 C.3     1  UNL1        0.0051
     16 C           4.6852   -1.0697    4.3817 C.ar    1  UNL1       -0.0163
     17 C           4.7192   -0.1598    5.4293 C.ar    1  UNL1        0.0076
     18 N           4.1275   -0.7322    6.5258 N.ar    1  UNL1       -0.3456
     19 C           3.7082   -1.9953    6.2202 C.ar    1  UNL1        0.1384
     20 C           4.0962   -2.2708    4.9122 C.ar    1  UNL1        0.0235
     21 C           3.7857   -3.5504    4.4149 C.ar    1  UNL1       -0.0310
     22 C           3.0601   -4.4098    5.2363 C.ar    1  UNL1        0.0597
     23 C           2.7110   -3.9918    6.5130 C.ar    1  UNL1        0.0482
     24 N           3.0294   -2.7944    7.0653 N.ar    1  UNL1       -0.2360
     25 CL          2.5844   -5.9553    4.6553 Cl      1  UNL1       -0.0820
     26 F           3.4983   -2.7013    1.5677 F       1  UNL1       -0.2031
     27 H          -0.1128    0.6029   -0.6042 H       1  UNL1        0.0230
     28 H           0.3155    1.4165   -2.0959 H       1  UNL1        0.0230
     29 H           1.6002    0.7166   -1.1052 H       1  UNL1        0.0230
     30 H          -0.6381   -0.9442   -2.3676 H       1  UNL1        0.0279
     31 H           0.8621   -0.5878   -3.2018 H       1  UNL1        0.0279
     32 H           1.2605   -2.6830   -2.3361 H       1  UNL1        0.0518
     33 H           2.1369   -1.6916   -1.1911 H       1  UNL1        0.0518
     34 H           1.2337   -3.2943    1.5866 H       1  UNL1        0.1734
     35 H           1.4823    2.0466    2.1660 H       1  UNL1        0.0647
     36 H          -0.0026    0.1358    1.5537 H       1  UNL1        0.0638
     37 H           5.5692   -1.6701    2.5017 H       1  UNL1        0.0364
     38 H           5.7925    0.0418    2.8900 H       1  UNL1        0.0364
     39 H           5.0663    0.8649    5.4693 H       1  UNL1        0.0810
     40 H           3.9713   -0.2949    7.4223 H       1  UNL1        0.1668
     41 H           4.0788   -3.8556    3.4179 H       1  UNL1        0.0640
     42 H           2.1325   -4.6436    7.1636 H       1  UNL1        0.0845
@<TRIPOS>BOND
     1     1     2    1
     2     2     3    1
     3     3     4    1
     4     4     5    2
     5     4     6    2
     6     4     7    1
     7     7     8    1
     8     8     9   ar
     9     9    10   ar
    10    10    11   ar
    11    11    12   ar
    12    12    13   ar
    13     8    13   ar
    14    11    14    1
    15    10    15    1
    16    15    16    1
    17    16    17   ar
    18    17    18   ar
    19    18    19   ar
    20    19    20   ar
    21    16    20   ar
    22    20    21   ar
    23    21    22   ar
    24    22    23   ar
    25    23    24   ar
    26    19    24   ar
    27    22    25    1
    28     9    26    1
    29     1    27    1
    30     1    28    1
    31     1    29    1
    32     2    30    1
    33     2    31    1
    34     3    32    1
    35     3    33    1
    36     7    34    1
    37    12    35    1
    38    13    36    1
    39    15    37    1
    40    15    38    1
    41    17    39    1
    42    18    40    1
    43    21    41    1
    44    23    42    1
@<TRIPOS>MOLECULE
mol_66646723_3
 51 54 0 0 0
SMALL
GASTEIGER

@<TRIPOS>ATOM
      1 C           0.1813   -1.6327   -0.3830 C.3     1  UNL1       -0.0637
      2 C           0.2681   -2.3707    0.9363 C.3     1  UNL1       -0.0347
      3 C           1.1756   -1.7179    1.9745 C.3     1  UNL1        0.0845
      4 S           0.4526   -0.4249    2.9969 S.O2    1  UNL1        0.0431
      5 O          -0.9810   -0.6139    3.0733 O.2     1  UNL1       -0.1552
      6 O           1.2317   -0.3678    4.2180 O.2     1  UNL1       -0.1552
      7 N           0.6960    1.0785    2.2907 N.pl3   1  UNL1       -0.2206
      8 C           1.7695    1.3170    1.3889 C.ar    1  UNL1        0.0485
      9 C           1.4734    1.2770    0.0310 C.ar    1  UNL1       -0.0257
     10 C           2.4644    1.4479   -0.9470 C.ar    1  UNL1        0.0592
     11 C           3.7287    1.8370   -0.5224 C.ar    1  UNL1        0.1343
     12 C           4.0322    1.9127    0.8427 C.ar    1  UNL1       -0.0240
     13 C           3.0607    1.6157    1.8065 C.ar    1  UNL1       -0.0366
     14 F           4.6801    2.1949   -1.3927 F       1  UNL1       -0.2047
     15 C           2.0504    1.2360   -2.3579 C.2     1  UNL1        0.1980
     16 O           0.8401    1.2406   -2.5892 O.2     1  UNL1       -0.2865
     17 C           2.9945    1.0344   -3.4518 C.ar    1  UNL1        0.0489
     18 C           2.6876    1.4710   -4.7361 C.ar    1  UNL1        0.0150
     19 N           3.7486    1.2199   -5.5539 N.ar    1  UNL1       -0.3451
     20 C           4.7255    0.5825   -4.8494 C.ar    1  UNL1        0.1388
     21 C           4.2685    0.3727   -3.5479 C.ar    1  UNL1        0.0301
     22 C           5.1140   -0.3853   -2.7061 C.ar    1  UNL1       -0.0411
     23 C           6.3616   -0.7849   -3.2081 C.ar    1  UNL1        0.0039
     24 C           6.6951   -0.4431   -4.5166 C.ar    1  UNL1        0.0377
     25 N           5.9033    0.2219   -5.3863 N.ar    1  UNL1       -0.2369
     26 C           7.2829   -1.5565   -2.4088 C.ar    1  UNL1        0.0210
     27 C           8.5553   -1.1498   -2.0673 C.ar    1  UNL1        0.0329
     28 N           9.1106   -2.1887   -1.3764 N.ar    1  UNL1       -0.2739
     29 N           8.2840   -3.2426   -1.2402 N.ar    1  UNL1       -0.1793
     30 C           7.1748   -2.8588   -1.8787 C.ar    1  UNL1        0.0571
     31 C          10.4458   -2.2568   -0.8333 C.3     1  UNL1        0.0302
     32 H          -0.4541   -0.7511   -0.2864 H       1  UNL1        0.0230
     33 H          -0.2681   -2.2665   -1.1536 H       1  UNL1        0.0230
     34 H           1.1756   -1.3482   -0.7394 H       1  UNL1        0.0230
     35 H          -0.7408   -2.5349    1.3284 H       1  UNL1        0.0279
     36 H           0.6799   -3.3638    0.7160 H       1  UNL1        0.0279
     37 H           1.4101   -2.5015    2.7092 H       1  UNL1        0.0518
     38 H           2.1360   -1.3873    1.5752 H       1  UNL1        0.0518
     39 H           0.7258    1.7393    3.0740 H       1  UNL1        0.1733
     40 H           0.4392    1.1241   -0.2697 H       1  UNL1        0.0644
     41 H           5.0320    2.2169    1.1436 H       1  UNL1        0.0647
     42 H           3.3136    1.6702    2.8625 H       1  UNL1        0.0637
     43 H           1.7978    1.9595   -5.1145 H       1  UNL1        0.0815
     44 H           3.8220    1.4472   -6.5348 H       1  UNL1        0.1668
     45 H           4.8205   -0.6361   -1.6925 H       1  UNL1        0.0631
     46 H           7.6588   -0.7300   -4.9330 H       1  UNL1        0.0836
     47 H           9.1021   -0.2367   -2.2594 H       1  UNL1        0.0832
     48 H           6.3451   -3.5505   -1.9487 H       1  UNL1        0.0854
     49 H          10.3768   -2.5137    0.2266 H       1  UNL1        0.0473
     50 H          11.0003   -3.0239   -1.3798 H       1  UNL1        0.0473
     51 H          10.9358   -1.2869   -0.9498 H       1  UNL1        0.0473
@<TRIPOS>BOND
     1     1     2    1
     2     2     3    1
     3     3     4    1
     4     4     5    2
     5     4     6    2
     6     4     7    1
     7     7     8    1
     8     8     9   ar
     9     9    10   ar
    10    10    11   ar
    11    11    12   ar
    12    12    13   ar
    13     8    13   ar
    14    11    14    1
    15    10    15    1
    16    15    16    2
    17    15    17    1
    18    17    18   ar
    19    18    19   ar
    20    19    20   ar
    21    20    21   ar
    22    17    21   ar
    23    21    22   ar
    24    22    23   ar
    25    23    24   ar
    26    24    25   ar
    27    20    25   ar
    28    23    26    1
    29    26    27   ar
    30    27    28   ar
    31    28    29   ar
    32    29    30   ar
    33    26    30   ar
    34    28    31    1
    35     1    32    1
    36     1    33    1
    37     1    34    1
    38     2    35    1
    39     2    36    1
    40     3    37    1
    41     3    38    1
    42     7    39    1
    43     9    40    1
    44    12    41    1
    45    13    42    1
    46    18    43    1
    47    19    44    1
    48    22    45    1
    49    24    46    1
    50    27    47    1
    51    30    48    1
    52    31    49    1
    53    31    50    1
    54    31    51    1
@<TRIPOS>MOLECULE
mol_53262272_4
 51 54 0 0 0
SMALL
GASTEIGER

@<TRIPOS>ATOM
      1 C           0.5705   -1.2751    1.1152 C.3     1  UNL1       -0.0637
      2 C           0.4537   -0.4480    2.3865 C.3     1  UNL1       -0.0347
      3 C           1.1062    0.9311    2.2951 C.3     1  UNL1        0.0845
      4 S           0.0980    2.1993    1.4990 S.O2    1  UNL1        0.0432
      5 O          -1.0738    1.5941    0.9003 O.2     1  UNL1       -0.1552
      6 O          -0.0413    3.2901    2.4380 O.2     1  UNL1       -0.1552
      7 N           1.0906    2.7993    0.2759 N.pl3   1  UNL1       -0.2178
      8 C           1.6065    1.9619   -0.7643 C.ar    1  UNL1        0.0837
      9 C           2.9155    2.1852   -1.2280 C.ar    1  UNL1        0.1592
     10 C           3.5284    1.3254   -2.1541 C.ar    1  UNL1        0.0944
     11 C           2.8030    0.1957   -2.5306 C.ar    1  UNL1        0.1371
     12 C           1.4584    0.0498   -2.2022 C.ar    1  UNL1       -0.0238
     13 C           0.8444    0.9672   -1.3603 C.ar    1  UNL1       -0.0338
     14 F           3.3629   -0.8330   -3.1735 F       1  UNL1       -0.2046
     15 C           4.9140    1.6183   -2.6251 C.2     1  UNL1        0.2008
     16 O           5.5105    2.5764   -2.1397 O.2     1  UNL1       -0.2864
     17 C           5.6074    0.7513   -3.5790 C.ar    1  UNL1        0.0490
     18 C           6.9259    0.3601   -3.3771 C.ar    1  UNL1        0.0150
     19 N           7.2711   -0.5353   -4.3494 N.ar    1  UNL1       -0.3451
     20 C           6.2204   -0.7159   -5.2002 C.ar    1  UNL1        0.1388
     21 C           5.1946    0.1466   -4.8173 C.ar    1  UNL1        0.0301
     22 C           4.0481    0.1657   -5.6419 C.ar    1  UNL1       -0.0397
     23 C           3.9747   -0.7647   -6.6870 C.ar    1  UNL1        0.0209
     24 C           5.0680   -1.5961   -6.9159 C.ar    1  UNL1        0.0391
     25 N           6.2293   -1.5937   -6.2187 N.ar    1  UNL1       -0.2368
     26 C           2.7733   -0.9048   -7.4912 C.ar    1  UNL1        0.0942
     27 N           2.2443    0.1286   -8.1620 N.ar    1  UNL1       -0.1714
     28 N           1.2149   -0.4081   -8.8422 N.ar    1  UNL1       -0.2739
     29 C           1.0113   -1.7273   -8.5707 C.ar    1  UNL1        0.0258
     30 C           2.0123   -2.0864   -7.7005 C.ar    1  UNL1       -0.0163
     31 C           0.4831    0.4048   -9.7830 C.3     1  UNL1        0.0302
     32 F           3.5797    3.2252   -0.6957 F       1  UNL1       -0.2027
     33 H          -0.1365   -0.9358    0.3559 H       1  UNL1        0.0230
     34 H           0.3342   -2.3244    1.3200 H       1  UNL1        0.0230
     35 H           1.5846   -1.2371    0.7050 H       1  UNL1        0.0230
     36 H          -0.5997   -0.3701    2.6780 H       1  UNL1        0.0279
     37 H           0.9595   -1.0077    3.1825 H       1  UNL1        0.0279
     38 H           1.2775    1.3009    3.3134 H       1  UNL1        0.0518
     39 H           2.0836    0.8856    1.8083 H       1  UNL1        0.0518
     40 H           1.7111    3.5467    0.6028 H       1  UNL1        0.1734
     41 H           0.9047   -0.8063   -2.5791 H       1  UNL1        0.0647
     42 H          -0.2107    0.8423   -1.1375 H       1  UNL1        0.0638
     43 H           7.6244    0.6222   -2.5922 H       1  UNL1        0.0815
     44 H           8.1504   -1.0238   -4.4355 H       1  UNL1        0.1668
     45 H           3.2114    0.8259   -5.4374 H       1  UNL1        0.0632
     46 H           5.0432   -2.3277   -7.7212 H       1  UNL1        0.0837
     47 H           0.2076   -2.2927   -9.0215 H       1  UNL1        0.0826
     48 H           2.1803   -3.0668   -7.2765 H       1  UNL1        0.0654
     49 H           0.1256    1.2991   -9.2676 H       1  UNL1        0.0473
     50 H           1.1599    0.6733  -10.5984 H       1  UNL1        0.0473
     51 H          -0.3632   -0.1652  -10.1747 H       1  UNL1        0.0473
@<TRIPOS>BOND
     1     1     2    1
     2     2     3    1
     3     3     4    1
     4     4     5    2
     5     4     6    2
     6     4     7    1
     7     7     8    1
     8     8     9   ar
     9     9    10   ar
    10    10    11   ar
    11    11    12   ar
    12    12    13   ar
    13     8    13   ar
    14    11    14    1
    15    10    15    1
    16    15    16    2
    17    15    17    1
    18    17    18   ar
    19    18    19   ar
    20    19    20   ar
    21    20    21   ar
    22    17    21   ar
    23    21    22   ar
    24    22    23   ar
    25    23    24   ar
    26    24    25   ar
    27    20    25   ar
    28    23    26    1
    29    26    27   ar
    30    27    28   ar
    31    28    29   ar
    32    29    30   ar
    33    26    30   ar
    34    28    31    1
    35     9    32    1
    36     1    33    1
    37     1    34    1
    38     1    35    1
    39     2    36    1
    40     2    37    1
    41     3    38    1
    42     3    39    1
    43     7    40    1
    44    12    41    1
    45    13    42    1
    46    18    43    1
    47    19    44    1
    48    22    45    1
    49    24    46    1
    50    29    47    1
    51    30    48    1
    52    31    49    1
    53    31    50    1
    54    31    51    1
@<TRIPOS>MOLECULE
mol_66647044_5
 51 54 0 0 0
SMALL
GASTEIGER

@<TRIPOS>ATOM
      1 C           0.7381   -0.3462    1.4741 C.3     1  UNL1       -0.0637
      2 C           0.5421    1.0333    2.0810 C.3     1  UNL1       -0.0347
      3 C           1.1936    2.1725    1.2932 C.3     1  UNL1        0.0845
      4 S           0.2253    2.7842   -0.1065 S.O2    1  UNL1        0.0432
      5 O          -0.9403    1.9528   -0.2974 O.2     1  UNL1       -0.1552
      6 O           0.0875    4.2178    0.0640 O.2     1  UNL1       -0.1552
      7 N           1.2318    2.6142   -1.4439 N.pl3   1  UNL1       -0.2178
      8 C           1.8360    1.3665   -1.7884 C.ar    1  UNL1        0.0837
      9 C           3.1640    1.3664   -2.2449 C.ar    1  UNL1        0.1592
     10 C           3.8726    0.1728   -2.4423 C.ar    1  UNL1        0.0944
     11 C           3.2260   -1.0056   -2.0755 C.ar    1  UNL1        0.1371
     12 C           1.8631   -1.0278   -1.7937 C.ar    1  UNL1       -0.0238
     13 C           1.1517    0.1632   -1.7099 C.ar    1  UNL1       -0.0338
     14 F           3.8829   -2.1603   -1.9248 F       1  UNL1       -0.2046
     15 C           5.2674    0.2232   -2.9615 C.2     1  UNL1        0.2008
     16 O           5.8080    1.3195   -3.0848 O.2     1  UNL1       -0.2864
     17 C           6.0262   -0.9900   -3.2721 C.ar    1  UNL1        0.0490
     18 C           7.3745   -1.1001   -2.9530 C.ar    1  UNL1        0.0150
     19 N           7.7989   -2.3611   -3.2629 N.ar    1  UNL1       -0.3451
     20 C           6.7720   -3.0669   -3.8184 C.ar    1  UNL1        0.1388
     21 C           5.6669   -2.2250   -3.9173 C.ar    1  UNL1        0.0301
     22 C           4.5230   -2.7677   -4.5433 C.ar    1  UNL1       -0.0397
     23 C           4.5384   -4.1187   -4.9177 C.ar    1  UNL1        0.0188
     24 C           5.7201   -4.8340   -4.7295 C.ar    1  UNL1        0.0391
     25 N           6.8680   -4.3537   -4.1959 N.ar    1  UNL1       -0.2368
     26 C           3.3520   -4.7389   -5.5006 C.ar    1  UNL1        0.0700
     27 C           2.6224   -4.3503   -6.6104 C.ar    1  UNL1       -0.0163
     28 C           1.6030   -5.3049   -6.7449 C.ar    1  UNL1        0.0500
     29 N           1.6472   -6.2266   -5.7846 N.ar    1  UNL1       -0.1793
     30 N           2.7029   -5.8607   -5.0275 N.ar    1  UNL1       -0.2667
     31 C           2.9824   -6.6460   -3.8467 C.3     1  UNL1        0.0309
     32 F           3.7460    2.5636   -2.4264 F       1  UNL1       -0.2027
     33 H           0.0588   -0.5050    0.6353 H       1  UNL1        0.0230
     34 H           0.5105   -1.1263    2.2074 H       1  UNL1        0.0230
     35 H           1.7712   -0.4943    1.1446 H       1  UNL1        0.0230
     36 H          -0.5278    1.2163    2.2296 H       1  UNL1        0.0279
     37 H           0.9974    1.0097    3.0783 H       1  UNL1        0.0279
     38 H           1.2902    3.0331    1.9669 H       1  UNL1        0.0518
     39 H           2.2039    1.9217    0.9608 H       1  UNL1        0.0518
     40 H           1.7896    3.4538   -1.6276 H       1  UNL1        0.1734
     41 H           1.3728   -1.9772   -1.5929 H       1  UNL1        0.0647
     42 H           0.0857    0.1286   -1.5032 H       1  UNL1        0.0638
     43 H           8.0483   -0.3842   -2.4982 H       1  UNL1        0.0815
     44 H           8.7213   -2.7412   -3.1080 H       1  UNL1        0.1668
     45 H           3.6283   -2.1701   -4.6835 H       1  UNL1        0.0632
     46 H           5.7844   -5.8782   -5.0295 H       1  UNL1        0.0837
     47 H           2.8205   -3.5028   -7.2512 H       1  UNL1        0.0654
     48 H           0.8315   -5.3692   -7.5014 H       1  UNL1        0.0848
     49 H           2.0495   -6.7780   -3.2908 H       1  UNL1        0.0473
     50 H           3.3699   -7.6161   -4.1688 H       1  UNL1        0.0473
     51 H           3.7085   -6.1390   -3.2105 H       1  UNL1        0.0473
@<TRIPOS>BOND
     1     1     2    1
     2     2     3    1
     3     3     4    1
     4     4     5    2
     5     4     6    2
     6     4     7    1
     7     7     8    1
     8     8     9   ar
     9     9    10   ar
    10    10    11   ar
    11    11    12   ar
    12    12    13   ar
    13     8    13   ar
    14    11    14    1
    15    10    15    1
    16    15    16    2
    17    15    17    1
    18    17    18   ar
    19    18    19   ar
    20    19    20   ar
    21    20    21   ar
    22    17    21   ar
    23    21    22   ar
    24    22    23   ar
    25    23    24   ar
    26    24    25   ar
    27    20    25   ar
    28    23    26    1
    29    26    27   ar
    30    27    28   ar
    31    28    29   ar
    32    29    30   ar
    33    26    30   ar
    34    30    31    1
    35     9    32    1
    36     1    33    1
    37     1    34    1
    38     1    35    1
    39     2    36    1
    40     2    37    1
    41     3    38    1
    42     3    39    1
    43     7    40    1
    44    12    41    1
    45    13    42    1
    46    18    43    1
    47    19    44    1
    48    22    45    1
    49    24    46    1
    50    27    47    1
    51    28    48    1
    52    31    49    1
    53    31    50    1
    54    31    51    1
@<TRIPOS>MOLECULE
mol_58087124_6
 51 54 0 0 0
SMALL
GASTEIGER

@<TRIPOS>ATOM
      1 C           0.6151   -1.2700    1.0574 C.3     1  UNL1       -0.0637
      2 C           0.5062   -0.5723    2.4049 C.3     1  UNL1       -0.0347
      3 C           1.1609    0.8082    2.4460 C.3     1  UNL1        0.0845
      4 S           0.1489    2.1495    1.7862 S.O2    1  UNL1        0.0432
      5 O          -1.0222    1.6067    1.1292 O.2     1  UNL1       -0.1552
      6 O           0.0093    3.1383    2.8318 O.2     1  UNL1       -0.1552
      7 N           1.1397    2.8728    0.6293 N.pl3   1  UNL1       -0.2178
      8 C           1.6573    2.1436   -0.4885 C.ar    1  UNL1        0.0837
      9 C           2.9675    2.4105   -0.9247 C.ar    1  UNL1        0.1592
     10 C           3.5804    1.6474   -1.9316 C.ar    1  UNL1        0.0944
     11 C           2.8540    0.5634   -2.4233 C.ar    1  UNL1        0.1371
     12 C           1.5091    0.3862   -2.1127 C.ar    1  UNL1       -0.0238
     13 C           0.8954    1.2142   -1.1827 C.ar    1  UNL1       -0.0338
     14 F           3.4130   -0.3906   -3.1733 F       1  UNL1       -0.2046
     15 C           4.9667    1.9833   -2.3706 C.2     1  UNL1        0.2008
     16 O           5.5703    2.8786   -1.7852 O.2     1  UNL1       -0.2864
     17 C           5.6487    1.2271   -3.4222 C.ar    1  UNL1        0.0490
     18 C           6.9658    0.8072   -3.2791 C.ar    1  UNL1        0.0150
     19 N           7.2962    0.0275   -4.3518 N.ar    1  UNL1       -0.3451
     20 C           6.2389   -0.0415   -5.2113 C.ar    1  UNL1        0.1388
     21 C           5.2232    0.7756   -4.7198 C.ar    1  UNL1        0.0301
     22 C           4.0722    0.9038   -5.5285 C.ar    1  UNL1       -0.0411
     23 C           3.9863    0.1187   -6.6861 C.ar    1  UNL1        0.0039
     24 C           5.0698   -0.6929   -7.0174 C.ar    1  UNL1        0.0377
     25 N           6.2327   -0.7877   -6.3295 N.ar    1  UNL1       -0.2369
     26 C           2.7967    0.1395   -7.5062 C.ar    1  UNL1        0.0210
     27 C           2.0829   -0.9777   -7.8880 C.ar    1  UNL1        0.0329
     28 N           1.0486   -0.5219   -8.6549 N.ar    1  UNL1       -0.2739
     29 N           1.0309    0.8170   -8.7866 N.ar    1  UNL1       -0.1793
     30 C           2.0954    1.2175   -8.0860 C.ar    1  UNL1        0.0571
     31 C           0.0373   -1.3143   -9.3121 C.3     1  UNL1        0.0302
     32 F           3.6318    3.3922   -0.2916 F       1  UNL1       -0.2027
     33 H          -0.0911   -0.8532    0.3370 H       1  UNL1        0.0230
     34 H           0.3734   -2.3331    1.1581 H       1  UNL1        0.0230
     35 H           1.6286   -1.1972    0.6501 H       1  UNL1        0.0230
     36 H          -0.5456   -0.5219    2.7080 H       1  UNL1        0.0279
     37 H           1.0150   -1.2084    3.1391 H       1  UNL1        0.0279
     38 H           1.3411    1.0757    3.4943 H       1  UNL1        0.0518
     39 H           2.1342    0.8091    1.9492 H       1  UNL1        0.0518
     40 H           1.7591    3.5836    1.0312 H       1  UNL1        0.1734
     41 H           0.9544   -0.4261   -2.5755 H       1  UNL1        0.0647
     42 H          -0.1603    1.0687   -0.9749 H       1  UNL1        0.0638
     43 H           7.6729    0.9723   -2.4757 H       1  UNL1        0.0815
     44 H           8.1711   -0.4537   -4.5012 H       1  UNL1        0.1668
     45 H           3.2460    1.5380   -5.2250 H       1  UNL1        0.0631
     46 H           5.0364   -1.3199   -7.9064 H       1  UNL1        0.0836
     47 H           2.2155   -2.0312   -7.6822 H       1  UNL1        0.0832
     48 H           2.3229    2.2747   -8.0379 H       1  UNL1        0.0854
     49 H          -0.9444   -0.9009   -9.0674 H       1  UNL1        0.0473
     50 H           0.2154   -1.2693  -10.3895 H       1  UNL1        0.0473
     51 H           0.1016   -2.3481   -8.9638 H       1  UNL1        0.0473
@<TRIPOS>BOND
     1     1     2    1
     2     2     3    1
     3     3     4    1
     4     4     5    2
     5     4     6    2
     6     4     7    1
     7     7     8    1
     8     8     9   ar
     9     9    10   ar
    10    10    11   ar
    11    11    12   ar
    12    12    13   ar
    13     8    13   ar
    14    11    14    1
    15    10    15    1
    16    15    16    2
    17    15    17    1
    18    17    18   ar
    19    18    19   ar
    20    19    20   ar
    21    20    21   ar
    22    17    21   ar
    23    21    22   ar
    24    22    23   ar
    25    23    24   ar
    26    24    25   ar
    27    20    25   ar
    28    23    26    1
    29    26    27   ar
    30    27    28   ar
    31    28    29   ar
    32    29    30   ar
    33    26    30   ar
    34    28    31    1
    35     9    32    1
    36     1    33    1
    37     1    34    1
    38     1    35    1
    39     2    36    1
    40     2    37    1
    41     3    38    1
    42     3    39    1
    43     7    40    1
    44    12    41    1
    45    13    42    1
    46    18    43    1
    47    19    44    1
    48    22    45    1
    49    24    46    1
    50    27    47    1
    51    30    48    1
    52    31    49    1
    53    31    50    1
    54    31    51    1
@<TRIPOS>MOLECULE
mol_66646554_7
 51 54 0 0 0
SMALL
GASTEIGER

@<TRIPOS>ATOM
      1 C           0.5696    1.1922   -1.1906 C.3     1  UNL1       -0.0637
      2 C           0.4179    0.3075   -2.4169 C.3     1  UNL1       -0.0347
      3 C           1.0677   -1.0730   -2.2897 C.3     1  UNL1        0.0845
      4 S           0.0819   -2.3061   -1.4067 S.O2    1  UNL1        0.0431
      5 O          -1.0876   -1.6760   -0.8306 O.2     1  UNL1       -0.1552
      6 O          -0.0591   -3.4488   -2.2827 O.2     1  UNL1       -0.1552
      7 N           1.0717   -2.8491   -0.1561 N.pl3   1  UNL1       -0.2192
      8 C           1.6845   -1.9623    0.7911 C.ar    1  UNL1        0.0668
      9 C           3.0025   -2.2059    1.2562 C.ar    1  UNL1        0.0768
     10 C           3.6766   -1.2354    2.0309 C.ar    1  UNL1        0.0775
     11 C           3.0235   -0.0126    2.2045 C.ar    1  UNL1        0.1357
     12 C           1.6708    0.1397    1.9366 C.ar    1  UNL1       -0.0239
     13 C           0.9837   -0.8713    1.2865 C.ar    1  UNL1       -0.0352
     14 F           3.6751    1.0870    2.6003 F       1  UNL1       -0.2047
     15 C           5.0462   -1.4416    2.6071 C.2     1  UNL1        0.1994
     16 O           5.7479   -2.3524    2.1790 O.2     1  UNL1       -0.2864
     17 C           5.6033   -0.5364    3.6248 C.ar    1  UNL1        0.0490
     18 C           6.9576   -0.2207    3.6418 C.ar    1  UNL1        0.0150
     19 N           7.1742    0.7486    4.5797 N.ar    1  UNL1       -0.3451
     20 C           6.0009    1.0502    5.2061 C.ar    1  UNL1        0.1388
     21 C           5.0133    0.1979    4.7163 C.ar    1  UNL1        0.0301
     22 C           3.7397    0.3088    5.3182 C.ar    1  UNL1       -0.0411
     23 C           3.5302    1.3305    6.2550 C.ar    1  UNL1        0.0039
     24 C           4.6118    2.1363    6.6033 C.ar    1  UNL1        0.0377
     25 N           5.8757    2.0186    6.1305 N.ar    1  UNL1       -0.2369
     26 C           2.2210    1.5416    6.8320 C.ar    1  UNL1        0.0210
     27 C           1.5761    2.7589    6.9168 C.ar    1  UNL1        0.0329
     28 N           0.3775    2.5114    7.5247 N.ar    1  UNL1       -0.2739
     29 N           0.1883    1.2134    7.8228 N.ar    1  UNL1       -0.1793
     30 C           1.3110    0.6257    7.4019 C.ar    1  UNL1        0.0571
     31 C          -0.6430    3.4729    7.8668 C.3     1  UNL1        0.0302
     32 CL          3.7202   -3.7186    0.7802 Cl      1  UNL1       -0.0808
     33 H          -0.1268    0.8961   -0.4046 H       1  UNL1        0.0230
     34 H           0.3362    2.2337   -1.4333 H       1  UNL1        0.0230
     35 H           1.5936    1.1655   -0.8057 H       1  UNL1        0.0230
     36 H          -0.6436    0.2227   -2.6744 H       1  UNL1        0.0279
     37 H           0.9017    0.8328   -3.2492 H       1  UNL1        0.0279
     38 H           1.1875   -1.4809   -3.3014 H       1  UNL1        0.0518
     39 H           2.0679   -1.0202   -1.8530 H       1  UNL1        0.0518
     40 H           1.6136   -3.6783   -0.4195 H       1  UNL1        0.1733
     41 H           1.1729    1.0717    2.1911 H       1  UNL1        0.0647
     42 H          -0.0783   -0.7440    1.0982 H       1  UNL1        0.0638
     43 H           7.7682   -0.5784    3.0187 H       1  UNL1        0.0815
     44 H           8.0500    1.2105    4.7778 H       1  UNL1        0.1668
     45 H           2.9215   -0.3349    5.0142 H       1  UNL1        0.0631
     46 H           4.4907    2.9398    7.3273 H       1  UNL1        0.0836
     47 H           1.8554    3.7551    6.6013 H       1  UNL1        0.0832
     48 H           1.4246   -0.4421    7.5369 H       1  UNL1        0.0854
     49 H          -1.5992    3.1229    7.4693 H       1  UNL1        0.0473
     50 H          -0.6864    3.5513    8.9561 H       1  UNL1        0.0473
     51 H          -0.3919    4.4426    7.4304 H       1  UNL1        0.0473
@<TRIPOS>BOND
     1     1     2    1
     2     2     3    1
     3     3     4    1
     4     4     5    2
     5     4     6    2
     6     4     7    1
     7     7     8    1
     8     8     9   ar
     9     9    10   ar
    10    10    11   ar
    11    11    12   ar
    12    12    13   ar
    13     8    13   ar
    14    11    14    1
    15    10    15    1
    16    15    16    2
    17    15    17    1
    18    17    18   ar
    19    18    19   ar
    20    19    20   ar
    21    20    21   ar
    22    17    21   ar
    23    21    22   ar
    24    22    23   ar
    25    23    24   ar
    26    24    25   ar
    27    20    25   ar
    28    23    26    1
    29    26    27   ar
    30    27    28   ar
    31    28    29   ar
    32    29    30   ar
    33    26    30   ar
    34    28    31    1
    35     9    32    1
    36     1    33    1
    37     1    34    1
    38     1    35    1
    39     2    36    1
    40     2    37    1
    41     3    38    1
    42     3    39    1
    43     7    40    1
    44    12    41    1
    45    13    42    1
    46    18    43    1
    47    19    44    1
    48    22    45    1
    49    24    46    1
    50    27    47    1
    51    30    48    1
    52    31    49    1
    53    31    50    1
    54    31    51    1
@<TRIPOS>MOLECULE
mol_58095332_8
 56 59 0 0 0
SMALL
GASTEIGER

@<TRIPOS>ATOM
      1 C           0.6966   -1.0608    1.0719 C.3     1  UNL1       -0.0637
      2 C           0.4823   -0.3156    2.3787 C.3     1  UNL1       -0.0347
      3 C           1.1122    1.0756    2.4203 C.3     1  UNL1        0.0845
      4 S           0.1960    2.3576    1.5444 S.O2    1  UNL1        0.0432
      5 O          -0.9796    1.7922    0.9236 O.2     1  UNL1       -0.1552
      6 O           0.0747    3.4851    2.4482 O.2     1  UNL1       -0.1552
      7 N           1.2502    2.8858    0.3555 N.pl3   1  UNL1       -0.2178
      8 C           1.7399    2.0695   -0.7083 C.ar    1  UNL1        0.0837
      9 C           3.0587    2.2631   -1.1548 C.ar    1  UNL1        0.1588
     10 C           3.5992    1.5047   -2.2039 C.ar    1  UNL1        0.0898
     11 C           2.7970    0.5231   -2.7816 C.ar    1  UNL1        0.1367
     12 C           1.4753    0.3486   -2.3792 C.ar    1  UNL1       -0.0238
     13 C           0.9355    1.1541   -1.3776 C.ar    1  UNL1       -0.0338
     14 F           3.2415   -0.2569   -3.7743 F       1  UNL1       -0.2047
     15 C           4.9673    1.8094   -2.7063 C.2     1  UNL1        0.1731
     16 O           5.4365    2.9314   -2.5169 O.2     1  UNL1       -0.2915
     17 C           5.7774    0.7648   -3.4590 C.3     1  UNL1        0.0373
     18 C           6.1351   -0.4314   -2.6178 C.ar    1  UNL1       -0.0197
     19 C           5.8513   -1.7303   -3.0578 C.ar    1  UNL1       -0.0297
     20 C           6.1730   -2.7443   -2.1608 C.ar    1  UNL1        0.0858
     21 C           6.7433   -2.4828   -0.9230 C.ar    1  UNL1        0.1783
     22 N           7.0690   -1.2420   -0.5052 N.ar    1  UNL1       -0.2342
     23 C           6.7673   -0.2614   -1.3809 C.ar    1  UNL1        0.0337
     24 N           6.8932   -3.6263   -0.1936 N.ar    1  UNL1       -0.2083
     25 C           6.4727   -4.6026   -0.9741 C.ar    1  UNL1        0.1410
     26 N           6.0405   -4.1061   -2.1837 N.ar    1  UNL1       -0.3366
     27 C           6.4137   -6.0164   -0.6297 C.ar    1  UNL1        0.0174
     28 C           7.0524   -6.9782   -1.4197 C.ar    1  UNL1       -0.0509
     29 C           7.0091   -8.3276   -1.0590 C.ar    1  UNL1       -0.0582
     30 C           6.3162   -8.7352    0.0877 C.ar    1  UNL1       -0.0504
     31 C           5.6765   -7.7722    0.8756 C.ar    1  UNL1       -0.0582
     32 C           5.7305   -6.4218    0.5219 C.ar    1  UNL1       -0.0509
     33 C           6.3154  -10.1809    0.4883 C.3     1  UNL1       -0.0397
     34 F           3.8005    3.1886   -0.5232 F       1  UNL1       -0.2027
     35 H          -0.0007   -0.7152    0.3074 H       1  UNL1        0.0230
     36 H           0.5057   -2.1303    1.2060 H       1  UNL1        0.0230
     37 H           1.7219   -0.9467    0.7065 H       1  UNL1        0.0230
     38 H          -0.5901   -0.2681    2.5998 H       1  UNL1        0.0279
     39 H           0.9388   -0.9162    3.1747 H       1  UNL1        0.0279
     40 H           1.1327    1.4050    3.4668 H       1  UNL1        0.0518
     41 H           2.1485    1.0715    2.0722 H       1  UNL1        0.0518
     42 H           1.8121    3.6975    0.6262 H       1  UNL1        0.1734
     43 H           0.8591   -0.4047   -2.8635 H       1  UNL1        0.0647
     44 H          -0.1176    1.0415   -1.1358 H       1  UNL1        0.0638
     45 H           5.2521    0.4884   -4.3789 H       1  UNL1        0.0394
     46 H           6.7112    1.2352   -3.7944 H       1  UNL1        0.0394
     47 H           5.3879   -1.9343   -4.0167 H       1  UNL1        0.0643
     48 H           7.0511    0.7330   -1.0361 H       1  UNL1        0.0833
     49 H           5.6464   -4.6598   -2.9300 H       1  UNL1        0.1674
     50 H           7.6228   -6.6841   -2.2973 H       1  UNL1        0.0625
     51 H           7.5366   -9.0592   -1.6674 H       1  UNL1        0.0620
     52 H           5.1440   -8.0615    1.7789 H       1  UNL1        0.0620
     53 H           5.2442   -5.6816    1.1547 H       1  UNL1        0.0625
     54 H           6.0221  -10.8103   -0.3580 H       1  UNL1        0.0278
     55 H           7.3142  -10.4748    0.8265 H       1  UNL1        0.0278
     56 H           5.6089  -10.3705    1.3030 H       1  UNL1        0.0278
@<TRIPOS>BOND
     1     1     2    1
     2     2     3    1
     3     3     4    1
     4     4     5    2
     5     4     6    2
     6     4     7    1
     7     7     8    1
     8     8     9   ar
     9     9    10   ar
    10    10    11   ar
    11    11    12   ar
    12    12    13   ar
    13     8    13   ar
    14    11    14    1
    15    10    15    1
    16    15    16    2
    17    15    17    1
    18    17    18    1
    19    18    19   ar
    20    19    20   ar
    21    20    21   ar
    22    21    22   ar
    23    22    23   ar
    24    18    23   ar
    25    21    24   ar
    26    24    25   ar
    27    25    26   ar
    28    20    26   ar
    29    25    27    1
    30    27    28   ar
    31    28    29   ar
    32    29    30   ar
    33    30    31   ar
    34    31    32   ar
    35    27    32   ar
    36    30    33    1
    37     9    34    1
    38     1    35    1
    39     1    36    1
    40     1    37    1
    41     2    38    1
    42     2    39    1
    43     3    40    1
    44     3    41    1
    45     7    42    1
    46    12    43    1
    47    13    44    1
    48    17    45    1
    49    17    46    1
    50    19    47    1
    51    23    48    1
    52    26    49    1
    53    28    50    1
    54    29    51    1
    55    31    52    1
    56    32    53    1
    57    33    54    1
    58    33    55    1
    59    33    56    1
@<TRIPOS>MOLECULE
mol_58095364_9
 56 59 0 0 0
SMALL
GASTEIGER

@<TRIPOS>ATOM
      1 C           0.7310    1.1005   -0.9199 C.3     1  UNL1       -0.0637
      2 C           0.5618    0.2404   -2.1612 C.3     1  UNL1       -0.0347
      3 C           1.2456   -1.1239   -2.0778 C.3     1  UNL1        0.0845
      4 S           0.2808   -2.3970   -1.2365 S.O2    1  UNL1        0.0432
      5 O          -0.9402   -1.8247   -0.7105 O.2     1  UNL1       -0.1552
      6 O           0.2400   -3.5491   -2.1122 O.2     1  UNL1       -0.1552
      7 N           1.2182   -2.9010    0.0485 N.pl3   1  UNL1       -0.2178
      8 C           1.8619   -2.0169    0.9601 C.ar    1  UNL1        0.0837
      9 C           3.1956   -2.2987    1.2869 C.ar    1  UNL1        0.1588
     10 C           3.9130   -1.5122    2.1901 C.ar    1  UNL1        0.0898
     11 C           3.2829   -0.3892    2.7202 C.ar    1  UNL1        0.1367
     12 C           1.9467   -0.1089    2.4247 C.ar    1  UNL1       -0.0238
     13 C           1.2189   -0.9545    1.5822 C.ar    1  UNL1       -0.0338
     14 F           3.9168    0.4349    3.5635 F       1  UNL1       -0.2047
     15 C           5.2790   -1.9450    2.5850 C.2     1  UNL1        0.1731
     16 O           5.5868   -3.1318    2.4736 O.2     1  UNL1       -0.2915
     17 C           6.2954   -0.9404    3.0920 C.3     1  UNL1        0.0373
     18 C           6.6870    0.0338    2.0180 C.ar    1  UNL1       -0.0197
     19 C           7.2109   -0.4345    0.8050 C.ar    1  UNL1       -0.0297
     20 C           7.4430    0.5429   -0.1514 C.ar    1  UNL1        0.0858
     21 C           7.1908    1.8857    0.0918 C.ar    1  UNL1        0.1783
     22 N           6.7200    2.3552    1.2653 N.ar    1  UNL1       -0.2342
     23 C           6.4977    1.4059    2.1947 C.ar    1  UNL1        0.0337
     24 N           7.5249    2.6518   -0.9810 N.ar    1  UNL1       -0.2083
     25 C           8.0458    1.8168   -1.8580 C.ar    1  UNL1        0.1410
     26 N           7.9410    0.5170   -1.4258 N.ar    1  UNL1       -0.3366
     27 C           8.8301    2.2108   -3.0113 C.ar    1  UNL1        0.0176
     28 C           8.2789    2.3209   -4.2885 C.ar    1  UNL1       -0.0511
     29 C           9.0418    2.8709   -5.3236 C.ar    1  UNL1       -0.0608
     30 C          10.3470    3.3234   -5.0809 C.ar    1  UNL1       -0.0588
     31 C          10.9179    3.1299   -3.8200 C.ar    1  UNL1       -0.0498
     32 C          10.1595    2.5862   -2.7899 C.ar    1  UNL1       -0.0482
     33 C          11.1334    4.0248   -6.1469 C.3     1  UNL1       -0.0397
     34 F           3.7731   -3.3442    0.6709 F       1  UNL1       -0.2027
     35 H           0.0455    0.7879   -0.1306 H       1  UNL1        0.0230
     36 H           0.4929    2.1451   -1.1437 H       1  UNL1        0.0230
     37 H           1.7589    1.0669   -0.5454 H       1  UNL1        0.0230
     38 H          -0.5052    0.1347   -2.3878 H       1  UNL1        0.0279
     39 H           1.0053    0.7906   -2.9989 H       1  UNL1        0.0279
     40 H           1.3734   -1.4989   -3.1012 H       1  UNL1        0.0518
     41 H           2.2461   -1.0676   -1.6420 H       1  UNL1        0.0518
     42 H           1.7214   -3.7682   -0.1611 H       1  UNL1        0.1734
     43 H           1.4725    0.7615    2.8738 H       1  UNL1        0.0647
     44 H           0.1597   -0.7668    1.4211 H       1  UNL1        0.0638
     45 H           5.9236   -0.4535    3.9982 H       1  UNL1        0.0394
     46 H           7.1922   -1.4903    3.4064 H       1  UNL1        0.0394
     47 H           7.4098   -1.4855    0.6214 H       1  UNL1        0.0643
     48 H           6.1254    1.7995    3.1391 H       1  UNL1        0.0833
     49 H           8.2945   -0.2915   -1.9165 H       1  UNL1        0.1674
     50 H           7.2461    2.0373   -4.4750 H       1  UNL1        0.0625
     51 H           8.5949    2.9921   -6.3081 H       1  UNL1        0.0618
     52 H          11.9360    3.4507   -3.6146 H       1  UNL1        0.0620
     53 H          10.5879    2.5079   -1.7925 H       1  UNL1        0.0627
     54 H          11.7495    3.3126   -6.7013 H       1  UNL1        0.0278
     55 H          10.4669    4.5472   -6.8407 H       1  UNL1        0.0278
     56 H          11.7828    4.7854   -5.6980 H       1  UNL1        0.0278
@<TRIPOS>BOND
     1     1     2    1
     2     2     3    1
     3     3     4    1
     4     4     5    2
     5     4     6    2
     6     4     7    1
     7     7     8    1
     8     8     9   ar
     9     9    10   ar
    10    10    11   ar
    11    11    12   ar
    12    12    13   ar
    13     8    13   ar
    14    11    14    1
    15    10    15    1
    16    15    16    2
    17    15    17    1
    18    17    18    1
    19    18    19   ar
    20    19    20   ar
    21    20    21   ar
    22    21    22   ar
    23    22    23   ar
    24    18    23   ar
    25    21    24   ar
    26    24    25   ar
    27    25    26   ar
    28    20    26   ar
    29    25    27    1
    30    27    28   ar
    31    28    29   ar
    32    29    30   ar
    33    30    31   ar
    34    31    32   ar
    35    27    32   ar
    36    31    33    1
    37     9    34    1
    38     1    35    1
    39     1    36    1
    40     1    37    1
    41     2    38    1
    42     2    39    1
    43     3    40    1
    44     3    41    1
    45     7    42    1
    46    12    43    1
    47    13    44    1
    48    17    45    1
    49    17    46    1
    50    19    47    1
    51    23    48    1
    52    26    49    1
    53    28    50    1
    54    29    51    1
    55    30    52    1
    56    32    53    1
    57    33    54    1
    58    33    55    1
    59    33    56    1
@<TRIPOS>MOLECULE
mol_58252053_10
 47 49 0 0 0
SMALL
GASTEIGER

@<TRIPOS>ATOM
      1 C           0.9213   -1.0042   -1.0359 C.3     1  UNL1       -0.0637
      2 C           0.6105   -2.2302   -0.1936 C.3     1  UNL1       -0.0347
      3 C           1.1678   -2.1728    1.2271 C.3     1  UNL1        0.0845
      4 S           0.1841   -1.2190    2.3979 S.O2    1  UNL1        0.0432
      5 O          -0.9507   -0.6237    1.7257 O.2     1  UNL1       -0.1552
      6 O          -0.0093   -2.0527    3.5654 O.2     1  UNL1       -0.1552
      7 N           1.2153   -0.0069    2.9138 N.pl3   1  UNL1       -0.2178
      8 C           1.7713    0.9972    2.0652 C.ar    1  UNL1        0.0837
      9 C           3.0591    1.4684    2.3626 C.ar    1  UNL1        0.1588
     10 C           3.6848    2.4477    1.5803 C.ar    1  UNL1        0.0898
     11 C           3.0047    2.9295    0.4655 C.ar    1  UNL1        0.1367
     12 C           1.7033    2.5146    0.1899 C.ar    1  UNL1       -0.0238
     13 C           1.0700    1.5884    1.0210 C.ar    1  UNL1       -0.0338
     14 F           3.5558    3.8288   -0.3582 F       1  UNL1       -0.2047
     15 C           5.0220    2.9541    1.9881 C.2     1  UNL1        0.1731
     16 O           5.3498    2.8679    3.1715 O.2     1  UNL1       -0.2915
     17 C           5.9623    3.5922    0.9845 C.3     1  UNL1        0.0373
     18 C           6.4590    2.7056   -0.1287 C.ar    1  UNL1       -0.0211
     19 C           7.0644    3.2995   -1.2486 C.ar    1  UNL1       -0.0450
     20 C           7.5372    2.4657   -2.2772 C.ar    1  UNL1        0.0331
     21 C           7.3603    1.0984   -2.1109 C.ar    1  UNL1        0.1394
     22 N           7.8479    0.4663   -3.2218 N.ar    1  UNL1       -0.3422
     23 C           8.3740    1.3858   -4.1021 C.ar    1  UNL1        0.0292
     24 C           8.1949    2.6252   -3.5218 C.ar    1  UNL1        0.0474
     25 BR          8.7211    4.2888   -4.2210 Br      1  UNL1       -0.0478
     26 C           8.9799    0.9568   -5.3859 C.3     1  UNL1       -0.0233
     27 N           6.8172    0.4642   -1.0574 N.ar    1  UNL1       -0.2372
     28 C           6.4132    1.3114   -0.0820 C.ar    1  UNL1        0.0335
     29 F           3.6964    0.9132    3.4074 F       1  UNL1       -0.2027
     30 H           0.2411   -0.1855   -0.7986 H       1  UNL1        0.0230
     31 H           0.7809   -1.2258   -2.0987 H       1  UNL1        0.0230
     32 H           1.9543   -0.6700   -0.8969 H       1  UNL1        0.0230
     33 H          -0.4714   -2.4046   -0.1867 H       1  UNL1        0.0279
     34 H           1.0626   -3.0926   -0.6978 H       1  UNL1        0.0279
     35 H           1.1729   -3.1938    1.6292 H       1  UNL1        0.0518
     36 H           2.2027   -1.8212    1.2540 H       1  UNL1        0.0518
     37 H           1.7560   -0.2589    3.7466 H       1  UNL1        0.1734
     38 H           1.1777    2.9260   -0.6687 H       1  UNL1        0.0647
     39 H           0.0320    1.3376    0.8210 H       1  UNL1        0.0638
     40 H           5.4868    4.4957    0.5866 H       1  UNL1        0.0394
     41 H           6.8414    3.9406    1.5431 H       1  UNL1        0.0394
     42 H           7.1745    4.3778   -1.3223 H       1  UNL1        0.0628
     43 H           7.8221   -0.5351   -3.3455 H       1  UNL1        0.1670
     44 H           9.7627    0.2116   -5.2107 H       1  UNL1        0.0292
     45 H           8.2187    0.5106   -6.0341 H       1  UNL1        0.0292
     46 H           9.4310    1.7953   -5.9240 H       1  UNL1        0.0292
     47 H           6.0288    0.7898    0.7922 H       1  UNL1        0.0833
@<TRIPOS>BOND
     1     1     2    1
     2     2     3    1
     3     3     4    1
     4     4     5    2
     5     4     6    2
     6     4     7    1
     7     7     8    1
     8     8     9   ar
     9     9    10   ar
    10    10    11   ar
    11    11    12   ar
    12    12    13   ar
    13     8    13   ar
    14    11    14    1
    15    10    15    1
    16    15    16    2
    17    15    17    1
    18    17    18    1
    19    18    19   ar
    20    19    20   ar
    21    20    21   ar
    22    21    22   ar
    23    22    23   ar
    24    23    24   ar
    25    20    24   ar
    26    24    25    1
    27    23    26    1
    28    21    27   ar
    29    27    28   ar
    30    18    28   ar
    31     9    29    1
    32     1    30    1
    33     1    31    1
    34     1    32    1
    35     2    33    1
    36     2    34    1
    37     3    35    1
    38     3    36    1
    39     7    37    1
    40    12    38    1
    41    13    39    1
    42    17    40    1
    43    17    41    1
    44    19    42    1
    45    22    43    1
    46    26    44    1
    47    26    45    1
    48    26    46    1
    49    28    47    1
@<TRIPOS>MOLECULE
mol_58251992_11
 50 52 0 0 0
SMALL
GASTEIGER

@<TRIPOS>ATOM
      1 C           0.8123   -1.4349   -0.5843 C.3     1  UNL1       -0.0637
      2 C           0.5421   -2.3061    0.6311 C.3     1  UNL1       -0.0347
      3 C           1.1222   -1.7605    1.9343 C.3     1  UNL1        0.0845
      4 S           0.1461   -0.4636    2.7193 S.O2    1  UNL1        0.0432
      5 O          -0.9929   -0.1285    1.8924 O.2     1  UNL1       -0.1552
      6 O          -0.0385   -0.8497    4.1023 O.2     1  UNL1       -0.1552
      7 N           1.1794    0.8519    2.7846 N.pl3   1  UNL1       -0.2178
      8 C           1.7503    1.4761    1.6348 C.ar    1  UNL1        0.0837
      9 C           3.0639    1.9570    1.7349 C.ar    1  UNL1        0.1588
     10 C           3.7094    2.5661    0.6519 C.ar    1  UNL1        0.0898
     11 C           3.0200    2.6637   -0.5531 C.ar    1  UNL1        0.1367
     12 C           1.6939    2.2450   -0.6515 C.ar    1  UNL1       -0.0238
     13 C           1.0452    1.6970    0.4575 C.ar    1  UNL1       -0.0338
     14 F           3.5891    3.1866   -1.6455 F       1  UNL1       -0.2047
     15 C           5.0843    3.0971    0.8405 C.2     1  UNL1        0.1731
     16 O           5.4287    3.4448    1.9702 O.2     1  UNL1       -0.2915
     17 C           6.0395    3.2456   -0.3263 C.3     1  UNL1        0.0373
     18 C           6.4998    1.9818   -1.0079 C.ar    1  UNL1       -0.0211
     19 C           7.3187    2.0970   -2.1447 C.ar    1  UNL1       -0.0458
     20 C           7.7595    0.9241   -2.7827 C.ar    1  UNL1        0.0221
     21 C           7.3231   -0.2793   -2.2479 C.ar    1  UNL1        0.1385
     22 N           7.8152   -1.2867   -3.0254 N.ar    1  UNL1       -0.3430
     23 C           8.6017   -0.7720   -4.0290 C.ar    1  UNL1        0.0181
     24 C           8.6035    0.6117   -3.8961 C.ar    1  UNL1       -0.0209
     25 C           9.3558    1.5774   -4.7422 C.3     1  UNL1       -0.0374
     26 C           9.2750   -1.6675   -5.0037 C.3     1  UNL1       -0.0241
     27 N           6.5593   -0.4661   -1.1576 N.ar    1  UNL1       -0.2372
     28 C           6.2049    0.6947   -0.5582 C.ar    1  UNL1        0.0335
     29 F           3.7073    1.7660    2.8991 F       1  UNL1       -0.2027
     30 H           0.1302   -0.5842   -0.6144 H       1  UNL1        0.0230
     31 H           0.6435   -2.0014   -1.5055 H       1  UNL1        0.0230
     32 H           1.8451   -1.0727   -0.5985 H       1  UNL1        0.0230
     33 H          -0.5359   -2.4809    0.7228 H       1  UNL1        0.0279
     34 H           1.0024   -3.2826    0.4396 H       1  UNL1        0.0279
     35 H           1.1451   -2.5793    2.6643 H       1  UNL1        0.0518
     36 H           2.1536   -1.4172    1.8173 H       1  UNL1        0.0518
     37 H           1.7308    0.8885    3.6473 H       1  UNL1        0.1734
     38 H           1.1638    2.3552   -1.5947 H       1  UNL1        0.0647
     39 H          -0.0062    1.4361    0.3699 H       1  UNL1        0.0638
     40 H           5.6070    3.9423   -1.0525 H       1  UNL1        0.0394
     41 H           6.9346    3.7479    0.0662 H       1  UNL1        0.0394
     42 H           7.6194    3.0702   -2.5212 H       1  UNL1        0.0628
     43 H           7.6272   -2.2627   -2.8529 H       1  UNL1        0.1670
     44 H          10.4310    1.3793   -4.6752 H       1  UNL1        0.0278
     45 H           9.0520    1.4891   -5.7898 H       1  UNL1        0.0278
     46 H           9.1875    2.6112   -4.4261 H       1  UNL1        0.0278
     47 H           9.9010   -2.3997   -4.4834 H       1  UNL1        0.0292
     48 H           8.5327   -2.2080   -5.5999 H       1  UNL1        0.0292
     49 H           9.9144   -1.1039   -5.6896 H       1  UNL1        0.0292
     50 H           5.6431    0.5292    0.3572 H       1  UNL1        0.0833
@<TRIPOS>BOND
     1     1     2    1
     2     2     3    1
     3     3     4    1
     4     4     5    2
     5     4     6    2
     6     4     7    1
     7     7     8    1
     8     8     9   ar
     9     9    10   ar
    10    10    11   ar
    11    11    12   ar
    12    12    13   ar
    13     8    13   ar
    14    11    14    1
    15    10    15    1
    16    15    16    2
    17    15    17    1
    18    17    18    1
    19    18    19   ar
    20    19    20   ar
    21    20    21   ar
    22    21    22   ar
    23    22    23   ar
    24    23    24   ar
    25    20    24   ar
    26    24    25    1
    27    23    26    1
    28    21    27   ar
    29    27    28   ar
    30    18    28   ar
    31     9    29    1
    32     1    30    1
    33     1    31    1
    34     1    32    1
    35     2    33    1
    36     2    34    1
    37     3    35    1
    38     3    36    1
    39     7    37    1
    40    12    38    1
    41    13    39    1
    42    17    40    1
    43    17    41    1
    44    19    42    1
    45    22    43    1
    46    25    44    1
    47    25    45    1
    48    25    46    1
    49    26    47    1
    50    26    48    1
    51    26    49    1
    52    28    50    1
@<TRIPOS>MOLECULE
mol_58252033_12
 50 52 0 0 0
SMALL
GASTEIGER

@<TRIPOS>ATOM
      1 C           0.6447    1.0664   -0.9822 C.3     1  UNL1       -0.0637
      2 C           0.4674    0.2978   -2.2809 C.3     1  UNL1       -0.0347
      3 C           1.1467   -1.0714   -2.2990 C.3     1  UNL1        0.0845
      4 S           0.1818   -2.3977   -1.5437 S.O2    1  UNL1        0.0432
      5 O          -1.0407   -1.8599   -0.9849 O.2     1  UNL1       -0.1552
      6 O           0.1418   -3.4904   -2.4923 O.2     1  UNL1       -0.1552
      7 N           1.1148   -2.9846   -0.2896 N.pl3   1  UNL1       -0.2178
      8 C           1.7690   -2.1525    0.6634 C.ar    1  UNL1        0.0837
      9 C           3.1192   -2.4230    0.9284 C.ar    1  UNL1        0.1588
     10 C           3.8507   -1.6821    1.8603 C.ar    1  UNL1        0.0898
     11 C           3.2071   -0.6210    2.4929 C.ar    1  UNL1        0.1367
     12 C           1.8550   -0.3544    2.2579 C.ar    1  UNL1       -0.0238
     13 C           1.1213   -1.1509    1.3743 C.ar    1  UNL1       -0.0338
     14 F           3.8413    0.1535    3.3815 F       1  UNL1       -0.2047
     15 C           5.2390   -2.1092    2.1810 C.2     1  UNL1        0.1731
     16 O           5.5799   -3.2651    1.9267 O.2     1  UNL1       -0.2915
     17 C           6.2264   -1.1556    2.8243 C.3     1  UNL1        0.0373
     18 C           6.6672   -0.0590    1.8977 C.ar    1  UNL1       -0.0211
     19 C           6.4583    1.2825    2.2178 C.ar    1  UNL1        0.0335
     20 N           6.7754    2.3441    1.4420 N.ar    1  UNL1       -0.2372
     21 C           7.3584    1.9877    0.2839 C.ar    1  UNL1        0.1383
     22 C           7.6541    0.7046   -0.1563 C.ar    1  UNL1        0.0192
     23 C           7.3038   -0.3617    0.6845 C.ar    1  UNL1       -0.0460
     24 C           8.2698    0.8370   -1.4290 C.ar    1  UNL1       -0.0319
     25 C           8.3174    2.1845   -1.7408 C.ar    1  UNL1        0.0180
     26 N           7.7667    2.8669   -0.6795 N.ar    1  UNL1       -0.3430
     27 C           8.8481    2.8870   -2.9440 C.3     1  UNL1       -0.0153
     28 C           7.7366    3.5016   -3.7806 C.3     1  UNL1       -0.0599
     29 F           3.6925   -3.4169    0.2291 F       1  UNL1       -0.2027
     30 H          -0.0366    0.6982   -0.2133 H       1  UNL1        0.0230
     31 H           0.4067    2.1246   -1.1290 H       1  UNL1        0.0230
     32 H           1.6748    1.0052   -0.6173 H       1  UNL1        0.0230
     33 H          -0.6010    0.2121   -2.5095 H       1  UNL1        0.0279
     34 H           0.9088    0.9053   -3.0793 H       1  UNL1        0.0279
     35 H           1.2655   -1.3730   -3.3474 H       1  UNL1        0.0518
     36 H           2.1506   -1.0498   -1.8681 H       1  UNL1        0.0518
     37 H           1.6265   -3.8295   -0.5621 H       1  UNL1        0.1734
     38 H           1.3743    0.4669    2.7856 H       1  UNL1        0.0647
     39 H           0.0550   -0.9744    1.2504 H       1  UNL1        0.0638
     40 H           5.8236   -0.7794    3.7691 H       1  UNL1        0.0394
     41 H           7.1130   -1.7373    3.1112 H       1  UNL1        0.0394
     42 H           5.9938    1.5582    3.1633 H       1  UNL1        0.0833
     43 H           7.5151   -1.3875    0.3941 H       1  UNL1        0.0628
     44 H           8.6343    0.0319   -2.0543 H       1  UNL1        0.0642
     45 H           7.6570    3.8669   -0.6004 H       1  UNL1        0.1670
     46 H           9.5514    3.6682   -2.6331 H       1  UNL1        0.0325
     47 H           9.4123    2.1788   -3.5624 H       1  UNL1        0.0325
     48 H           7.1885    4.2637   -3.2161 H       1  UNL1        0.0233
     49 H           8.1544    3.9788   -4.6726 H       1  UNL1        0.0233
     50 H           7.0170    2.7421   -4.1048 H       1  UNL1        0.0233
@<TRIPOS>BOND
     1     1     2    1
     2     2     3    1
     3     3     4    1
     4     4     5    2
     5     4     6    2
     6     4     7    1
     7     7     8    1
     8     8     9   ar
     9     9    10   ar
    10    10    11   ar
    11    11    12   ar
    12    12    13   ar
    13     8    13   ar
    14    11    14    1
    15    10    15    1
    16    15    16    2
    17    15    17    1
    18    17    18    1
    19    18    19   ar
    20    19    20   ar
    21    20    21   ar
    22    21    22   ar
    23    22    23   ar
    24    18    23   ar
    25    22    24   ar
    26    24    25   ar
    27    25    26   ar
    28    21    26   ar
    29    25    27    1
    30    27    28    1
    31     9    29    1
    32     1    30    1
    33     1    31    1
    34     1    32    1
    35     2    33    1
    36     2    34    1
    37     3    35    1
    38     3    36    1
    39     7    37    1
    40    12    38    1
    41    13    39    1
    42    17    40    1
    43    17    41    1
    44    19    42    1
    45    23    43    1
    46    24    44    1
    47    26    45    1
    48    27    46    1
    49    27    47    1
    50    28    48    1
    51    28    49    1
    52    28    50    1
@<TRIPOS>MOLECULE
mol_58252007_13
 47 49 0 0 0
SMALL
GASTEIGER

@<TRIPOS>ATOM
      1 C           0.7501    1.3022   -0.7575 C.3     1  UNL1       -0.0637
      2 C           0.5800    0.8018   -2.1823 C.3     1  UNL1       -0.0347
      3 C           1.2646   -0.5354   -2.4637 C.3     1  UNL1        0.0845
      4 S           0.3060   -1.9845   -1.9723 S.O2    1  UNL1        0.0432
      5 O          -0.9148   -1.5669   -1.3146 O.2     1  UNL1       -0.1552
      6 O           0.2628   -2.8759   -3.1114 O.2     1  UNL1       -0.1552
      7 N           1.2457   -2.7977   -0.8575 N.pl3   1  UNL1       -0.2178
      8 C           1.9108   -2.1590    0.2278 C.ar    1  UNL1        0.0837
      9 C           3.2704   -2.4542    0.4064 C.ar    1  UNL1        0.1588
     10 C           4.0122   -1.9122    1.4591 C.ar    1  UNL1        0.0898
     11 C           3.3629   -1.0262    2.3165 C.ar    1  UNL1        0.1367
     12 C           2.0055   -0.7285    2.1574 C.ar    1  UNL1       -0.0238
     13 C           1.2659   -1.3286    1.1349 C.ar    1  UNL1       -0.0338
     14 F           3.9945   -0.4673    3.3555 F       1  UNL1       -0.2047
     15 C           5.4199   -2.3611    1.6450 C.2     1  UNL1        0.1731
     16 O           5.7782   -3.4257    1.1399 O.2     1  UNL1       -0.2915
     17 C           6.4120   -1.5388    2.4442 C.3     1  UNL1        0.0373
     18 C           6.7606   -0.2420    1.7731 C.ar    1  UNL1       -0.0211
     19 C           6.4079    0.9808    2.3552 C.ar    1  UNL1       -0.0458
     20 C           6.6414    2.1538    1.6221 C.ar    1  UNL1        0.0218
     21 C           7.2741    2.0158    0.3931 C.ar    1  UNL1        0.1383
     22 N           7.4040    3.2616   -0.1515 N.ar    1  UNL1       -0.3456
     23 C           6.8362    4.1935    0.6798 C.ar    1  UNL1        0.0070
     24 C           6.3534    3.5413    1.8014 C.ar    1  UNL1       -0.0239
     25 C           5.6415    4.1671    2.9457 C.3     1  UNL1       -0.0377
     26 N           7.6883    0.8794   -0.1950 N.ar    1  UNL1       -0.2372
     27 C           7.4027   -0.2243    0.5333 C.ar    1  UNL1        0.0335
     28 F           3.8404   -3.2731   -0.4936 F       1  UNL1       -0.2027
     29 H           0.0755    0.7813   -0.0760 H       1  UNL1        0.0230
     30 H           0.4991    2.3657   -0.6942 H       1  UNL1        0.0230
     31 H           1.7816    1.1831   -0.4113 H       1  UNL1        0.0230
     32 H          -0.4873    0.7579   -2.4270 H       1  UNL1        0.0279
     33 H           1.0210    1.5546   -2.8456 H       1  UNL1        0.0279
     34 H           1.3821   -0.6314   -3.5504 H       1  UNL1        0.0518
     35 H           2.2693   -0.5917   -2.0380 H       1  UNL1        0.0518
     36 H           1.7572   -3.5723   -1.2914 H       1  UNL1        0.1734
     37 H           1.5252   -0.0435    2.8532 H       1  UNL1        0.0647
     38 H           0.1966   -1.1410    1.0627 H       1  UNL1        0.0638
     39 H           6.0450   -1.4020    3.4660 H       1  UNL1        0.0394
     40 H           7.3307   -2.1309    2.5519 H       1  UNL1        0.0394
     41 H           5.9296    1.0276    3.3280 H       1  UNL1        0.0628
     42 H           7.8347    3.4363   -1.0473 H       1  UNL1        0.1668
     43 H           6.8170    5.2385    0.4001 H       1  UNL1        0.0810
     44 H           6.2888    4.8885    3.4531 H       1  UNL1        0.0278
     45 H           4.7456    4.6891    2.5941 H       1  UNL1        0.0278
     46 H           5.3246    3.4208    3.6810 H       1  UNL1        0.0278
     47 H           7.7102   -1.1560    0.0582 H       1  UNL1        0.0833
@<TRIPOS>BOND
     1     1     2    1
     2     2     3    1
     3     3     4    1
     4     4     5    2
     5     4     6    2
     6     4     7    1
     7     7     8    1
     8     8     9   ar
     9     9    10   ar
    10    10    11   ar
    11    11    12   ar
    12    12    13   ar
    13     8    13   ar
    14    11    14    1
    15    10    15    1
    16    15    16    2
    17    15    17    1
    18    17    18    1
    19    18    19   ar
    20    19    20   ar
    21    20    21   ar
    22    21    22   ar
    23    22    23   ar
    24    23    24   ar
    25    20    24   ar
    26    24    25    1
    27    21    26   ar
    28    26    27   ar
    29    18    27   ar
    30     9    28    1
    31     1    29    1
    32     1    30    1
    33     1    31    1
    34     2    32    1
    35     2    33    1
    36     3    34    1
    37     3    35    1
    38     7    36    1
    39    12    37    1
    40    13    38    1
    41    17    39    1
    42    17    40    1
    43    19    41    1
    44    22    42    1
    45    23    43    1
    46    25    44    1
    47    25    45    1
    48    25    46    1
    49    27    47    1
@<TRIPOS>MOLECULE
mol_58252021_14
 47 49 0 0 0
SMALL
GASTEIGER

@<TRIPOS>ATOM
      1 C           0.8258   -1.2932    0.7052 C.3     1  UNL1       -0.0637
      2 C           0.6022   -0.9069    2.1574 C.3     1  UNL1       -0.0347
      3 C           1.2344    0.4247    2.5603 C.3     1  UNL1        0.0845
      4 S           0.3243    1.8939    2.0463 S.O2    1  UNL1        0.0432
      5 O          -0.8659    1.5124    1.3231 O.2     1  UNL1       -0.1552
      6 O           0.2283    2.7591    3.2070 O.2     1  UNL1       -0.1552
      7 N           1.3666    2.6972    1.0142 N.pl3   1  UNL1       -0.2178
      8 C           1.8310    2.1816   -0.2319 C.ar    1  UNL1        0.0837
      9 C           3.1444    2.4745   -0.6384 C.ar    1  UNL1        0.1588
     10 C           3.6602    1.9988   -1.8529 C.ar    1  UNL1        0.0898
     11 C           2.8396    1.1947   -2.6411 C.ar    1  UNL1        0.1367
     12 C           1.5226    0.9350   -2.2740 C.ar    1  UNL1       -0.0238
     13 C           1.0070    1.4685   -1.0948 C.ar    1  UNL1       -0.0338
     14 F           3.2598    0.6771   -3.8011 F       1  UNL1       -0.2047
     15 C           5.0148    2.4245   -2.2948 C.2     1  UNL1        0.1731
     16 O           5.4833    3.4729   -1.8501 O.2     1  UNL1       -0.2915
     17 C           5.8050    1.6022   -3.2960 C.3     1  UNL1        0.0373
     18 C           6.3574    0.3311   -2.7163 C.ar    1  UNL1       -0.0211
     19 C           5.9101   -0.9203   -3.1420 C.ar    1  UNL1        0.0335
     20 N           6.3597   -2.1192   -2.7026 N.ar    1  UNL1       -0.2372
     21 C           7.3563   -2.0051   -1.8064 C.ar    1  UNL1        0.1383
     22 C           7.9062   -0.8365   -1.2966 C.ar    1  UNL1        0.0192
     23 C           7.3733    0.3788   -1.7505 C.ar    1  UNL1       -0.0460
     24 C           8.9537   -1.2222   -0.4186 C.ar    1  UNL1       -0.0321
     25 C           9.0448   -2.6024   -0.4480 C.ar    1  UNL1        0.0152
     26 N           8.0280   -3.0606   -1.2540 N.ar    1  UNL1       -0.3433
     27 C          10.0232   -3.5176    0.1874 C.3     1  UNL1       -0.0244
     28 F           3.9050    3.2096    0.1905 F       1  UNL1       -0.2027
     29 H           0.1280   -0.7681    0.0517 H       1  UNL1        0.0230
     30 H           0.6403   -2.3624    0.5608 H       1  UNL1        0.0230
     31 H           1.8514   -1.0849    0.3854 H       1  UNL1        0.0230
     32 H          -0.4718   -0.9143    2.3753 H       1  UNL1        0.0279
     33 H           1.0510   -1.6937    2.7757 H       1  UNL1        0.0279
     34 H           1.2491    0.4697    3.6567 H       1  UNL1        0.0518
     35 H           2.2728    0.5089    2.2291 H       1  UNL1        0.0518
     36 H           1.9043    3.4500    1.4516 H       1  UNL1        0.1734
     37 H           0.8924    0.3298   -2.9207 H       1  UNL1        0.0647
     38 H          -0.0430    1.3043   -0.8704 H       1  UNL1        0.0638
     39 H           5.2281    1.4318   -4.2087 H       1  UNL1        0.0394
     40 H           6.6510    2.2165   -3.6351 H       1  UNL1        0.0394
     41 H           5.1383   -1.0020   -3.9055 H       1  UNL1        0.0833
     42 H           7.7708    1.3252   -1.3939 H       1  UNL1        0.0628
     43 H           9.6090   -0.5586    0.1311 H       1  UNL1        0.0642
     44 H           7.8222   -4.0241   -1.4724 H       1  UNL1        0.1670
     45 H          11.0049   -3.3957   -0.2828 H       1  UNL1        0.0292
     46 H          10.1239   -3.2968    1.2542 H       1  UNL1        0.0292
     47 H           9.7256   -4.5654    0.0809 H       1  UNL1        0.0292
@<TRIPOS>BOND
     1     1     2    1
     2     2     3    1
     3     3     4    1
     4     4     5    2
     5     4     6    2
     6     4     7    1
     7     7     8    1
     8     8     9   ar
     9     9    10   ar
    10    10    11   ar
    11    11    12   ar
    12    12    13   ar
    13     8    13   ar
    14    11    14    1
    15    10    15    1
    16    15    16    2
    17    15    17    1
    18    17    18    1
    19    18    19   ar
    20    19    20   ar
    21    20    21   ar
    22    21    22   ar
    23    22    23   ar
    24    18    23   ar
    25    22    24   ar
    26    24    25   ar
    27    25    26   ar
    28    21    26   ar
    29    25    27    1
    30     9    28    1
    31     1    29    1
    32     1    30    1
    33     1    31    1
    34     2    32    1
    35     2    33    1
    36     3    34    1
    37     3    35    1
    38     7    36    1
    39    12    37    1
    40    13    38    1
    41    17    39    1
    42    17    40    1
    43    19    41    1
    44    23    42    1
    45    24    43    1
    46    26    44    1
    47    27    45    1
    48    27    46    1
    49    27    47    1
@<TRIPOS>MOLECULE
mol_144212136_15
 49 52 0 0 0
SMALL
GASTEIGER

@<TRIPOS>ATOM
      1 C           0.5479    1.5266    0.5586 C.3     1  UNL1       -0.0644
      2 C           0.3789    2.2424   -0.7735 C.3     1  UNL1       -0.0430
      3 C           1.0519    1.5378   -1.9512 C.3     1  UNL1        0.0407
      4 S           0.0366    0.1694   -2.6357 S.O     1  UNL1        0.1099
      5 O          -0.3285    0.5499   -4.0377 O.2     1  UNL1       -0.2373
      6 N           1.1998   -1.0205   -2.6956 N.pl3   1  UNL1       -0.2616
      7 C           1.7995   -1.6151   -1.5718 C.ar    1  UNL1        0.0749
      8 C           3.1305   -2.0736   -1.6461 C.ar    1  UNL1        0.1585
      9 C           3.8711   -2.3975   -0.4976 C.ar    1  UNL1        0.0944
     10 C           3.2532   -2.1753    0.7321 C.ar    1  UNL1        0.1371
     11 C           1.8990   -1.8763    0.8250 C.ar    1  UNL1       -0.0238
     12 C           1.1686   -1.6282   -0.3277 C.ar    1  UNL1       -0.0345
     13 F           3.9352   -2.1701    1.8824 F       1  UNL1       -0.2046
     14 C           5.2843   -2.8546   -0.6364 C.2     1  UNL1        0.2008
     15 O           5.8270   -2.7595   -1.7303 O.2     1  UNL1       -0.2864
     16 C           6.0593   -3.3354    0.5127 C.ar    1  UNL1        0.0490
     17 C           7.4050   -3.0169    0.6593 C.ar    1  UNL1        0.0150
     18 N           7.8404   -3.4894    1.8648 N.ar    1  UNL1       -0.3451
     19 C           6.8197   -4.1337    2.4997 C.ar    1  UNL1        0.1388
     20 C           5.7156   -4.1441    1.6516 C.ar    1  UNL1        0.0301
     21 C           4.5794   -4.8419    2.1165 C.ar    1  UNL1       -0.0397
     22 C           4.5788   -5.3477    3.4279 C.ar    1  UNL1        0.0191
     23 C           5.7636   -5.2240    4.1566 C.ar    1  UNL1        0.0391
     24 N           6.9176   -4.6507    3.7362 N.ar    1  UNL1       -0.2368
     25 C           3.3747   -5.9395    4.0186 C.ar    1  UNL1        0.0724
     26 C           2.8741   -5.5246    5.2544 C.ar    1  UNL1       -0.0356
     27 C           1.7313   -6.1359    5.7650 C.ar    1  UNL1       -0.0583
     28 C           1.1203   -7.1464    5.0354 C.ar    1  UNL1       -0.0436
     29 C           1.6697   -7.4912    3.8125 C.ar    1  UNL1        0.0283
     30 N           2.7676   -6.9040    3.2853 N.ar    1  UNL1       -0.2549
     31 F           3.6881   -2.1216   -2.8676 F       1  UNL1       -0.2027
     32 H          -0.1099    0.6578    0.6250 H       1  UNL1        0.0230
     33 H           0.2798    2.1913    1.3862 H       1  UNL1        0.0230
     34 H           1.5841    1.2086    0.7132 H       1  UNL1        0.0230
     35 H          -0.6873    2.4083   -0.9645 H       1  UNL1        0.0272
     36 H           0.8398    3.2320   -0.6668 H       1  UNL1        0.0272
     37 H           1.1695    2.2587   -2.7682 H       1  UNL1        0.0417
     38 H           2.0535    1.1871   -1.6859 H       1  UNL1        0.0417
     39 H           1.5746   -1.2803   -3.6051 H       1  UNL1        0.1623
     40 H           1.4355   -1.7809    1.8029 H       1  UNL1        0.0647
     41 H           0.1145   -1.3806   -0.2375 H       1  UNL1        0.0638
     42 H           8.0668   -2.4541    0.0127 H       1  UNL1        0.0815
     43 H           8.7609   -3.3707    2.2619 H       1  UNL1        0.1668
     44 H           3.6847   -4.9266    1.5068 H       1  UNL1        0.0632
     45 H           5.8245   -5.6157    5.1708 H       1  UNL1        0.0837
     46 H           3.3536   -4.7262    5.8129 H       1  UNL1        0.0639
     47 H           1.3250   -5.8265    6.7240 H       1  UNL1        0.0619
     48 H           0.2369   -7.6523    5.4089 H       1  UNL1        0.0633
     49 H           1.2298   -8.2767    3.2043 H       1  UNL1        0.0830
@<TRIPOS>BOND
     1     1     2    1
     2     2     3    1
     3     3     4    1
     4     4     5    2
     5     4     6    1
     6     6     7    1
     7     7     8   ar
     8     8     9   ar
     9     9    10   ar
    10    10    11   ar
    11    11    12   ar
    12     7    12   ar
    13    10    13    1
    14     9    14    1
    15    14    15    2
    16    14    16    1
    17    16    17   ar
    18    17    18   ar
    19    18    19   ar
    20    19    20   ar
    21    16    20   ar
    22    20    21   ar
    23    21    22   ar
    24    22    23   ar
    25    23    24   ar
    26    19    24   ar
    27    22    25    1
    28    25    26   ar
    29    26    27   ar
    30    27    28   ar
    31    28    29   ar
    32    29    30   ar
    33    25    30   ar
    34     8    31    1
    35     1    32    1
    36     1    33    1
    37     1    34    1
    38     2    35    1
    39     2    36    1
    40     3    37    1
    41     3    38    1
    42     6    39    1
    43    11    40    1
    44    12    41    1
    45    17    42    1
    46    18    43    1
    47    21    44    1
    48    23    45    1
    49    26    46    1
    50    27    47    1
    51    28    48    1
    52    29    49    1
@<TRIPOS>MOLECULE
mol_58252043_16
 50 52 0 0 0
SMALL
GASTEIGER

@<TRIPOS>ATOM
      1 C           0.7449   -1.0845   -1.0823 C.3     1  UNL1       -0.0637
      2 C           0.4744   -2.2979   -0.2082 C.3     1  UNL1       -0.0347
      3 C           1.0393   -2.1878    1.2056 C.3     1  UNL1        0.0845
      4 S           0.0606   -1.1967    2.3475 S.O2    1  UNL1        0.0432
      5 O          -1.0719   -0.6153    1.6590 O.2     1  UNL1       -0.1552
      6 O          -0.1362   -1.9962    3.5373 O.2     1  UNL1       -0.1552
      7 N           1.1048    0.0200    2.8238 N.pl3   1  UNL1       -0.2178
      8 C           1.6357    1.0279    1.9627 C.ar    1  UNL1        0.0837
      9 C           2.9044    1.5481    2.2628 C.ar    1  UNL1        0.1588
     10 C           3.4987    2.5387    1.4710 C.ar    1  UNL1        0.0898
     11 C           2.8132    2.9867    0.3470 C.ar    1  UNL1        0.1367
     12 C           1.5313    2.5212    0.0654 C.ar    1  UNL1       -0.0238
     13 C           0.9258    1.5806    0.9021 C.ar    1  UNL1       -0.0338
     14 F           3.3417    3.9002   -0.4761 F       1  UNL1       -0.2047
     15 C           4.8190    3.0898    1.8676 C.2     1  UNL1        0.1731
     16 O           5.0864    3.1580    3.0672 O.2     1  UNL1       -0.2915
     17 C           5.8015    3.5953    0.8264 C.3     1  UNL1        0.0373
     18 C           6.2598    2.6008   -0.2098 C.ar    1  UNL1       -0.0211
     19 C           6.0367    1.2223   -0.1083 C.ar    1  UNL1       -0.0458
     20 C           6.4574    0.3949   -1.1622 C.ar    1  UNL1        0.0221
     21 C           7.1625    0.9958   -2.1956 C.ar    1  UNL1        0.1384
     22 N           7.5127    0.0192   -3.0841 N.ar    1  UNL1       -0.3456
     23 C           7.0070   -1.1877   -2.6711 C.ar    1  UNL1        0.0073
     24 C           6.3223   -0.9914   -1.4831 C.ar    1  UNL1       -0.0210
     25 C           5.5620   -2.0163   -0.7033 C.3     1  UNL1       -0.0285
     26 C           4.4030   -2.6058   -1.4952 C.3     1  UNL1       -0.0612
     27 N           7.4669    2.2981   -2.3298 N.ar    1  UNL1       -0.2372
     28 C           6.9816    3.0566   -1.3174 C.ar    1  UNL1        0.0335
     29 F           3.5627    1.0253    3.3114 F       1  UNL1       -0.2027
     30 H           0.0304   -0.2864   -0.8756 H       1  UNL1        0.0230
     31 H           0.6280   -1.3429   -2.1396 H       1  UNL1        0.0230
     32 H           1.7605   -0.7031   -0.9405 H       1  UNL1        0.0230
     33 H          -0.6021   -2.5021   -0.1882 H       1  UNL1        0.0279
     34 H           0.9476   -3.1605   -0.6924 H       1  UNL1        0.0279
     35 H           1.0559   -3.1934    1.6444 H       1  UNL1        0.0518
     36 H           2.0717   -1.8273    1.2104 H       1  UNL1        0.0518
     37 H           1.6452   -0.2062    3.6640 H       1  UNL1        0.1734
     38 H           0.9967    2.9056   -0.7999 H       1  UNL1        0.0647
     39 H          -0.1012    1.2949    0.6949 H       1  UNL1        0.0638
     40 H           5.3740    4.4841    0.3491 H       1  UNL1        0.0394
     41 H           6.6928    3.9394    1.3678 H       1  UNL1        0.0394
     42 H           5.5444    0.7743    0.7458 H       1  UNL1        0.0628
     43 H           8.0475    0.1927   -3.9223 H       1  UNL1        0.1668
     44 H           7.1602   -2.0780   -3.2665 H       1  UNL1        0.0810
     45 H           6.2410   -2.8158   -0.3872 H       1  UNL1        0.0311
     46 H           5.1588   -1.5657    0.2116 H       1  UNL1        0.0311
     47 H           4.7641   -3.1847   -2.3517 H       1  UNL1        0.0233
     48 H           3.8087   -3.2724   -0.8627 H       1  UNL1        0.0233
     49 H           3.7440   -1.8197   -1.8788 H       1  UNL1        0.0233
     50 H           7.2084    4.1168   -1.4251 H       1  UNL1        0.0833
@<TRIPOS>BOND
     1     1     2    1
     2     2     3    1
     3     3     4    1
     4     4     5    2
     5     4     6    2
     6     4     7    1
     7     7     8    1
     8     8     9   ar
     9     9    10   ar
    10    10    11   ar
    11    11    12   ar
    12    12    13   ar
    13     8    13   ar
    14    11    14    1
    15    10    15    1
    16    15    16    2
    17    15    17    1
    18    17    18    1
    19    18    19   ar
    20    19    20   ar
    21    20    21   ar
    22    21    22   ar
    23    22    23   ar
    24    23    24   ar
    25    20    24   ar
    26    24    25    1
    27    25    26    1
    28    21    27   ar
    29    27    28   ar
    30    18    28   ar
    31     9    29    1
    32     1    30    1
    33     1    31    1
    34     1    32    1
    35     2    33    1
    36     2    34    1
    37     3    35    1
    38     3    36    1
    39     7    37    1
    40    12    38    1
    41    13    39    1
    42    17    40    1
    43    17    41    1
    44    19    42    1
    45    22    43    1
    46    23    44    1
    47    25    45    1
    48    25    46    1
    49    26    47    1
    50    26    48    1
    51    26    49    1
    52    28    50    1
@<TRIPOS>MOLECULE
mol_58251971_17
 47 49 0 0 0
SMALL
GASTEIGER

@<TRIPOS>ATOM
      1 C           0.6201    0.4458   -1.4535 C.3     1  UNL1       -0.0637
      2 C           0.4150   -0.9255   -2.0751 C.3     1  UNL1       -0.0347
      3 C           1.0578   -2.0742   -1.2959 C.3     1  UNL1        0.0845
      4 S           0.0904   -2.6817    0.1052 S.O2    1  UNL1        0.0432
      5 O          -1.0793   -1.8486    0.2907 O.2     1  UNL1       -0.1552
      6 O          -0.0478   -4.1130   -0.0611 O.2     1  UNL1       -0.1552
      7 N           1.0946   -2.5050    1.4411 N.pl3   1  UNL1       -0.2178
      8 C           1.7013   -1.2525    1.7647 C.ar    1  UNL1        0.0835
      9 C           3.0527   -1.2380    2.1290 C.ar    1  UNL1        0.1563
     10 C           3.7683   -0.0383    2.3213 C.ar    1  UNL1        0.0576
     11 C           3.1044    1.1626    1.9910 C.ar    1  UNL1       -0.0371
     12 C           1.7048    1.1351    1.8141 C.ar    1  UNL1       -0.0562
     13 C           0.9997   -0.0634    1.7573 C.ar    1  UNL1       -0.0362
     14 C           3.7652    2.4707    1.6665 C.3     1  UNL1       -0.0390
     15 C           5.1472   -0.1915    2.9191 C.2     1  UNL1        0.1705
     16 O           5.4657   -1.2805    3.4059 O.2     1  UNL1       -0.2916
     17 C           6.1548    0.9387    3.0034 C.3     1  UNL1        0.0372
     18 C           6.8138    1.2525    1.6908 C.ar    1  UNL1       -0.0211
     19 C           7.0884    2.5732    1.3307 C.ar    1  UNL1        0.0335
     20 N           7.5364    2.9906    0.1252 N.ar    1  UNL1       -0.2372
     21 C           7.7514    1.9746   -0.7293 C.ar    1  UNL1        0.1381
     22 C           7.6113    0.6151   -0.4808 C.ar    1  UNL1        0.0189
     23 C           7.1533    0.2354    0.7874 C.ar    1  UNL1       -0.0460
     24 C           7.9781   -0.0653   -1.6712 C.ar    1  UNL1       -0.0351
     25 C           8.2814    0.8906   -2.6181 C.ar    1  UNL1        0.0041
     26 N           8.1443    2.1232   -2.0305 N.ar    1  UNL1       -0.3458
     27 F           3.6645   -2.4329    2.2102 F       1  UNL1       -0.2028
     28 H          -0.0496    0.5945   -0.6050 H       1  UNL1        0.0230
     29 H           0.3870    1.2347   -2.1756 H       1  UNL1        0.0230
     30 H           1.6568    0.5869   -1.1325 H       1  UNL1        0.0230
     31 H          -0.6562   -1.1004   -2.2251 H       1  UNL1        0.0279
     32 H           0.8702   -0.8968   -3.0723 H       1  UNL1        0.0279
     33 H           1.1412   -2.9335   -1.9733 H       1  UNL1        0.0518
     34 H           2.0728   -1.8368   -0.9682 H       1  UNL1        0.0518
     35 H           1.6736   -3.3331    1.6092 H       1  UNL1        0.1734
     36 H           1.1510    2.0601    1.6470 H       1  UNL1        0.0621
     37 H          -0.0768   -0.0406    1.6104 H       1  UNL1        0.0637
     38 H           4.2369    2.9323    2.5316 H       1  UNL1        0.0278
     39 H           4.4708    2.3149    0.8462 H       1  UNL1        0.0278
     40 H           3.0458    3.1997    1.2737 H       1  UNL1        0.0278
     41 H           5.6872    1.8078    3.4715 H       1  UNL1        0.0394
     42 H           6.9405    0.6333    3.7081 H       1  UNL1        0.0394
     43 H           6.8943    3.3869    2.0281 H       1  UNL1        0.0833
     44 H           7.0243   -0.8155    1.0320 H       1  UNL1        0.0628
     45 H           7.9932   -1.1365   -1.8247 H       1  UNL1        0.0639
     46 H           8.5813    0.8009   -3.6532 H       1  UNL1        0.0807
     47 H           8.2907    3.0198   -2.4700 H       1  UNL1        0.1668
@<TRIPOS>BOND
     1     1     2    1
     2     2     3    1
     3     3     4    1
     4     4     5    2
     5     4     6    2
     6     4     7    1
     7     7     8    1
     8     8     9   ar
     9     9    10   ar
    10    10    11   ar
    11    11    12   ar
    12    12    13   ar
    13     8    13   ar
    14    11    14    1
    15    10    15    1
    16    15    16    2
    17    15    17    1
    18    17    18    1
    19    18    19   ar
    20    19    20   ar
    21    20    21   ar
    22    21    22   ar
    23    22    23   ar
    24    18    23   ar
    25    22    24   ar
    26    24    25   ar
    27    25    26   ar
    28    21    26   ar
    29     9    27    1
    30     1    28    1
    31     1    29    1
    32     1    30    1
    33     2    31    1
    34     2    32    1
    35     3    33    1
    36     3    34    1
    37     7    35    1
    38    12    36    1
    39    13    37    1
    40    14    38    1
    41    14    39    1
    42    14    40    1
    43    17    41    1
    44    17    42    1
    45    19    43    1
    46    23    44    1
    47    24    45    1
    48    25    46    1
    49    26    47    1
@<TRIPOS>MOLECULE
mol_58252041_18
 47 49 0 0 0
SMALL
GASTEIGER

@<TRIPOS>ATOM
      1 C           3.3459   -1.0870   -1.3664 C.3     1  UNL1       -0.0637
      2 C           2.0223   -1.8142   -1.5292 C.3     1  UNL1       -0.0347
      3 C           1.9362   -3.1097   -0.7343 C.3     1  UNL1        0.0845
      4 S           0.4471   -3.2509    0.2768 S.O2    1  UNL1        0.0431
      5 O          -0.6603   -2.6051   -0.3930 O.2     1  UNL1       -0.1552
      6 O           0.3403   -4.6393    0.6776 O.2     1  UNL1       -0.1552
      7 N           0.7811   -2.4390    1.7186 N.pl3   1  UNL1       -0.2204
      8 C           1.4215   -1.1616    1.7378 C.ar    1  UNL1        0.0514
      9 C           0.8364    0.0143    1.2037 C.ar    1  UNL1       -0.0149
     10 C           1.6541    1.1539    0.9902 C.ar    1  UNL1        0.0576
     11 C           2.9353    1.1490    1.5841 C.ar    1  UNL1        0.1342
     12 C           3.4299    0.0463    2.2781 C.ar    1  UNL1       -0.0239
     13 C           2.6939   -1.1266    2.3118 C.ar    1  UNL1       -0.0363
     14 F           3.7557    2.2069    1.5110 F       1  UNL1       -0.2047
     15 C           1.3073    2.3829    0.1687 C.2     1  UNL1        0.1705
     16 O           2.0154    3.3887    0.2750 O.2     1  UNL1       -0.2916
     17 C           0.1581    2.4427   -0.8311 C.3     1  UNL1        0.0372
     18 C           0.3465    1.6539   -2.0992 C.ar    1  UNL1       -0.0211
     19 C           1.4382    1.8659   -2.9441 C.ar    1  UNL1        0.0335
     20 N           1.7349    1.1535   -4.0618 N.ar    1  UNL1       -0.2372
     21 C           0.8599    0.1583   -4.2958 C.ar    1  UNL1        0.1381
     22 C          -0.2881   -0.1388   -3.5748 C.ar    1  UNL1        0.0189
     23 C          -0.5907    0.6837   -2.4809 C.ar    1  UNL1       -0.0460
     24 C          -0.8467   -1.3161   -4.1395 C.ar    1  UNL1       -0.0351
     25 C          -0.0227   -1.7090   -5.1735 C.ar    1  UNL1        0.0041
     26 N           0.9803   -0.7773   -5.2880 N.ar    1  UNL1       -0.3458
     27 C          -0.6535    0.0363    1.0202 C.3     1  UNL1       -0.0372
     28 H           3.6871   -1.0903   -0.3315 H       1  UNL1        0.0230
     29 H           3.2463   -0.0437   -1.6809 H       1  UNL1        0.0230
     30 H           4.1251   -1.5481   -1.9780 H       1  UNL1        0.0230
     31 H           1.2148   -1.1353   -1.2594 H       1  UNL1        0.0279
     32 H           1.8931   -2.0421   -2.5925 H       1  UNL1        0.0279
     33 H           1.8714   -3.9466   -1.4413 H       1  UNL1        0.0518
     34 H           2.8001   -3.2966   -0.0915 H       1  UNL1        0.0518
     35 H           1.0896   -3.1134    2.4219 H       1  UNL1        0.1733
     36 H           4.4133    0.1002    2.7372 H       1  UNL1        0.0647
     37 H           3.1228   -2.0059    2.7865 H       1  UNL1        0.0637
     38 H          -0.7862    2.2143   -0.3369 H       1  UNL1        0.0394
     39 H           0.0472    3.4970   -1.1241 H       1  UNL1        0.0394
     40 H           2.1586    2.6544   -2.7265 H       1  UNL1        0.0833
     41 H          -1.4956    0.5009   -1.9127 H       1  UNL1        0.0628
     42 H          -1.7177   -1.8517   -3.7826 H       1  UNL1        0.0639
     43 H          -0.0589   -2.5708   -5.8265 H       1  UNL1        0.0807
     44 H           1.7394   -0.7926   -5.9526 H       1  UNL1        0.1668
     45 H          -1.0662    0.9927    1.3525 H       1  UNL1        0.0278
     46 H          -0.9273   -0.1598   -0.0093 H       1  UNL1        0.0278
     47 H          -1.1481   -0.7143    1.6462 H       1  UNL1        0.0278
@<TRIPOS>BOND
     1     1     2    1
     2     2     3    1
     3     3     4    1
     4     4     5    2
     5     4     6    2
     6     4     7    1
     7     7     8    1
     8     8     9   ar
     9     9    10   ar
    10    10    11   ar
    11    11    12   ar
    12    12    13   ar
    13     8    13   ar
    14    11    14    1
    15    10    15    1
    16    15    16    2
    17    15    17    1
    18    17    18    1
    19    18    19   ar
    20    19    20   ar
    21    20    21   ar
    22    21    22   ar
    23    22    23   ar
    24    18    23   ar
    25    22    24   ar
    26    24    25   ar
    27    25    26   ar
    28    21    26   ar
    29     9    27    1
    30     1    28    1
    31     1    29    1
    32     1    30    1
    33     2    31    1
    34     2    32    1
    35     3    33    1
    36     3    34    1
    37     7    35    1
    38    12    36    1
    39    13    37    1
    40    17    38    1
    41    17    39    1
    42    19    40    1
    43    23    41    1
    44    24    42    1
    45    25    43    1
    46    26    44    1
    47    27    45    1
    48    27    46    1
    49    27    47    1
@<TRIPOS>MOLECULE
mol_58095356_19
 53 56 0 0 0
SMALL
GASTEIGER

@<TRIPOS>ATOM
      1 C           0.9411   -1.1177   -1.1566 C.3     1  UNL1       -0.0637
      2 C           0.6255   -2.3131   -0.2727 C.3     1  UNL1       -0.0347
      3 C           1.1848   -2.2082    1.1440 C.3     1  UNL1        0.0845
      4 S           0.2178   -1.1998    2.2806 S.O2    1  UNL1        0.0432
      5 O          -0.9111   -0.6147    1.5903 O.2     1  UNL1       -0.1552
      6 O           0.0198   -1.9892    3.4768 O.2     1  UNL1       -0.1552
      7 N           1.2734    0.0097    2.7452 N.pl3   1  UNL1       -0.2178
      8 C           1.7990    1.0232    1.8892 C.ar    1  UNL1        0.0837
      9 C           3.0661    1.5466    2.1902 C.ar    1  UNL1        0.1588
     10 C           3.6587    2.5366    1.3972 C.ar    1  UNL1        0.0898
     11 C           2.9755    2.9817    0.2712 C.ar    1  UNL1        0.1367
     12 C           1.6954    2.5127   -0.0121 C.ar    1  UNL1       -0.0238
     13 C           1.0908    1.5715    0.8251 C.ar    1  UNL1       -0.0338
     14 F           3.5075    3.8927   -0.5524 F       1  UNL1       -0.2047
     15 C           4.9767    3.0905    1.7935 C.2     1  UNL1        0.1731
     16 O           5.2306    3.1923    2.9932 O.2     1  UNL1       -0.2915
     17 C           5.9795    3.5405    0.7460 C.3     1  UNL1        0.0373
     18 C           6.3924    2.4965   -0.2630 C.ar    1  UNL1       -0.0197
     19 C           6.2476    1.1232   -0.0343 C.ar    1  UNL1       -0.0297
     20 C           6.6150    0.3004   -1.0923 C.ar    1  UNL1        0.0858
     21 C           7.1740    0.7942   -2.2617 C.ar    1  UNL1        0.1783
     22 N           7.3995    2.1077   -2.4703 N.ar    1  UNL1       -0.2342
     23 C           6.9920    2.9092   -1.4604 C.ar    1  UNL1        0.0337
     24 N           7.4398   -0.2133   -3.1470 N.ar    1  UNL1       -0.2083
     25 C           7.0186   -1.3155   -2.5604 C.ar    1  UNL1        0.1410
     26 N           6.5479   -1.0483   -1.2967 N.ar    1  UNL1       -0.3366
     27 C           7.0282   -2.6606   -3.1098 C.ar    1  UNL1        0.0175
     28 C           5.8274   -3.2753   -3.4945 C.ar    1  UNL1       -0.0484
     29 C           5.8371   -4.5793   -3.9916 C.ar    1  UNL1       -0.0258
     30 C           7.0439   -5.2618   -4.0983 C.ar    1  UNL1        0.1234
     31 C           8.2428   -4.6626   -3.7276 C.ar    1  UNL1       -0.0258
     32 C           8.2367   -3.3556   -3.2383 C.ar    1  UNL1       -0.0484
     33 F           7.0506   -6.5162   -4.5668 F       1  UNL1       -0.2055
     34 F           3.7288    1.0242    3.2364 F       1  UNL1       -0.2027
     35 H           0.2631   -0.2890   -0.9494 H       1  UNL1        0.0230
     36 H           0.8027   -1.3770   -2.2111 H       1  UNL1        0.0230
     37 H           1.9744   -0.7807   -1.0269 H       1  UNL1        0.0230
     38 H          -0.4570   -2.4834   -0.2587 H       1  UNL1        0.0279
     39 H           1.0743   -3.1942   -0.7466 H       1  UNL1        0.0279
     40 H           1.1821   -3.2133    1.5845 H       1  UNL1        0.0518
     41 H           2.2230   -1.8652    1.1541 H       1  UNL1        0.0518
     42 H           1.7867   -0.1928    3.6080 H       1  UNL1        0.1734
     43 H           1.1610    2.8946   -0.8788 H       1  UNL1        0.0647
     44 H           0.0649    1.2830    0.6157 H       1  UNL1        0.0638
     45 H           5.5800    4.4309    0.2475 H       1  UNL1        0.0394
     46 H           6.8845    3.8644    1.2760 H       1  UNL1        0.0394
     47 H           5.8570    0.7100    0.8875 H       1  UNL1        0.0643
     48 H           7.1704    3.9671   -1.6507 H       1  UNL1        0.0833
     49 H           6.1902   -1.7378   -0.6526 H       1  UNL1        0.1674
     50 H           4.8852   -2.7357   -3.4294 H       1  UNL1        0.0625
     51 H           4.9168   -5.0632   -4.3029 H       1  UNL1        0.0646
     52 H           9.1732   -5.2125   -3.8262 H       1  UNL1        0.0646
     53 H           9.1741   -2.8792   -2.9575 H       1  UNL1        0.0625
@<TRIPOS>BOND
     1     1     2    1
     2     2     3    1
     3     3     4    1
     4     4     5    2
     5     4     6    2
     6     4     7    1
     7     7     8    1
     8     8     9   ar
     9     9    10   ar
    10    10    11   ar
    11    11    12   ar
    12    12    13   ar
    13     8    13   ar
    14    11    14    1
    15    10    15    1
    16    15    16    2
    17    15    17    1
    18    17    18    1
    19    18    19   ar
    20    19    20   ar
    21    20    21   ar
    22    21    22   ar
    23    22    23   ar
    24    18    23   ar
    25    21    24   ar
    26    24    25   ar
    27    25    26   ar
    28    20    26   ar
    29    25    27    1
    30    27    28   ar
    31    28    29   ar
    32    29    30   ar
    33    30    31   ar
    34    31    32   ar
    35    27    32   ar
    36    30    33    1
    37     9    34    1
    38     1    35    1
    39     1    36    1
    40     1    37    1
    41     2    38    1
    42     2    39    1
    43     3    40    1
    44     3    41    1
    45     7    42    1
    46    12    43    1
    47    13    44    1
    48    17    45    1
    49    17    46    1
    50    19    47    1
    51    23    48    1
    52    26    49    1
    53    28    50    1
    54    29    51    1
    55    31    52    1
    56    32    53    1
@<TRIPOS>MOLECULE
mol_58095372_20
 53 56 0 0 0
SMALL
GASTEIGER

@<TRIPOS>ATOM
      1 C           0.7655    0.8890    1.2676 C.3     1  UNL1       -0.0637
      2 C           0.5823    2.2794    0.6822 C.3     1  UNL1       -0.0347
      3 C           1.2251    2.4722   -0.6902 C.3     1  UNL1        0.0845
      4 S           0.2937    1.7695   -2.0668 S.O2    1  UNL1        0.0432
      5 O          -0.8558    1.0468   -1.5739 O.2     1  UNL1       -0.1552
      6 O           0.1347    2.8180   -3.0560 O.2     1  UNL1       -0.1552
      7 N           1.3537    0.6811   -2.7771 N.pl3   1  UNL1       -0.2178
      8 C           1.9520   -0.4018   -2.0642 C.ar    1  UNL1        0.0837
      9 C           3.3073   -0.6771   -2.2967 C.ar    1  UNL1        0.1588
     10 C           3.9719   -1.7078   -1.6225 C.ar    1  UNL1        0.0898
     11 C           3.2608   -2.4442   -0.6797 C.ar    1  UNL1        0.1367
     12 C           1.8999   -2.2179   -0.4771 C.ar    1  UNL1       -0.0238
     13 C           1.2356   -1.2282   -1.2056 C.ar    1  UNL1       -0.0338
     14 F           3.8448   -3.4148    0.0339 F       1  UNL1       -0.2047
     15 C           5.3842   -2.0064   -1.9711 C.2     1  UNL1        0.1731
     16 O           5.7751   -1.7569   -3.1112 O.2     1  UNL1       -0.2915
     17 C           6.3285   -2.6283   -0.9585 C.3     1  UNL1        0.0373
     18 C           6.5629   -1.8210    0.2938 C.ar    1  UNL1       -0.0197
     19 C           6.9463   -2.4720    1.4763 C.ar    1  UNL1       -0.0297
     20 C           7.1585   -1.6440    2.5760 C.ar    1  UNL1        0.0858
     21 C           6.9833   -0.2693    2.5053 C.ar    1  UNL1        0.1783
     22 N           6.6477    0.3779    1.3707 N.ar    1  UNL1       -0.2342
     23 C           6.4865   -0.4239    0.2982 C.ar    1  UNL1        0.0337
     24 N           7.1933    0.3228    3.7150 N.ar    1  UNL1       -0.2083
     25 C           7.5598   -0.6498    4.5258 C.ar    1  UNL1        0.1410
     26 N           7.5487   -1.8615    3.8709 N.ar    1  UNL1       -0.3366
     27 C           7.9229   -0.4981    5.9271 C.ar    1  UNL1        0.0173
     28 C           9.2321   -0.7443    6.3579 C.ar    1  UNL1       -0.0511
     29 C           9.5841   -0.5311    7.6927 C.ar    1  UNL1       -0.0611
     30 C           8.6286   -0.0820    8.6040 C.ar    1  UNL1       -0.0617
     31 C           7.3212    0.1572    8.1835 C.ar    1  UNL1       -0.0611
     32 C           6.9709   -0.0438    6.8472 C.ar    1  UNL1       -0.0511
     33 F           3.9653    0.1147   -3.1601 F       1  UNL1       -0.2027
     34 H           0.0866    0.1740    0.8000 H       1  UNL1        0.0230
     35 H           0.5295    0.8892    2.3363 H       1  UNL1        0.0230
     36 H           1.7962    0.5393    1.1534 H       1  UNL1        0.0230
     37 H          -0.4855    2.5238    0.6514 H       1  UNL1        0.0279
     38 H           1.0476    2.9891    1.3764 H       1  UNL1        0.0279
     39 H           1.2743    3.5486   -0.8964 H       1  UNL1        0.0518
     40 H           2.2529    2.1011   -0.7193 H       1  UNL1        0.0518
     41 H           1.9151    1.1031   -3.5226 H       1  UNL1        0.1734
     42 H           1.3552   -2.8226    0.2443 H       1  UNL1        0.0647
     43 H           0.1631   -1.1081   -1.0728 H       1  UNL1        0.0638
     44 H           5.9721   -3.6373   -0.7246 H       1  UNL1        0.0394
     45 H           7.3004   -2.7589   -1.4523 H       1  UNL1        0.0394
     46 H           7.0762   -3.5474    1.5317 H       1  UNL1        0.0643
     47 H           6.2786    0.1307   -0.6155 H       1  UNL1        0.0833
     48 H           7.7787   -2.7507    4.2901 H       1  UNL1        0.1674
     49 H           9.9961   -1.0596    5.6514 H       1  UNL1        0.0625
     50 H          10.6088   -0.6935    8.0174 H       1  UNL1        0.0618
     51 H           8.9071    0.0990    9.6393 H       1  UNL1        0.0618
     52 H           6.5788    0.5196    8.8900 H       1  UNL1        0.0618
     53 H           5.9560    0.1726    6.5194 H       1  UNL1        0.0625
@<TRIPOS>BOND
     1     1     2    1
     2     2     3    1
     3     3     4    1
     4     4     5    2
     5     4     6    2
     6     4     7    1
     7     7     8    1
     8     8     9   ar
     9     9    10   ar
    10    10    11   ar
    11    11    12   ar
    12    12    13   ar
    13     8    13   ar
    14    11    14    1
    15    10    15    1
    16    15    16    2
    17    15    17    1
    18    17    18    1
    19    18    19   ar
    20    19    20   ar
    21    20    21   ar
    22    21    22   ar
    23    22    23   ar
    24    18    23   ar
    25    21    24   ar
    26    24    25   ar
    27    25    26   ar
    28    20    26   ar
    29    25    27    1
    30    27    28   ar
    31    28    29   ar
    32    29    30   ar
    33    30    31   ar
    34    31    32   ar
    35    27    32   ar
    36     9    33    1
    37     1    34    1
    38     1    35    1
    39     1    36    1
    40     2    37    1
    41     2    38    1
    42     3    39    1
    43     3    40    1
    44     7    41    1
    45    12    42    1
    46    13    43    1
    47    17    44    1
    48    17    45    1
    49    19    46    1
    50    23    47    1
    51    26    48    1
    52    28    49    1
    53    29    50    1
    54    30    51    1
    55    31    52    1
    56    32    53    1
@<TRIPOS>MOLECULE
mol_58095345_21
 53 56 0 0 0
SMALL
GASTEIGER

@<TRIPOS>ATOM
      1 C           0.7742   -1.3689   -0.6948 C.3     1  UNL1       -0.0637
      2 C           0.4734   -2.3103    0.4593 C.3     1  UNL1       -0.0347
      3 C           1.0500   -1.8620    1.8007 C.3     1  UNL1        0.0845
      4 S           0.1023   -0.5917    2.6590 S.O2    1  UNL1        0.0432
      5 O          -1.0346   -0.1942    1.8576 O.2     1  UNL1       -0.1552
      6 O          -0.0813   -1.0530    4.0184 O.2     1  UNL1       -0.1552
      7 N           1.1610    0.6941    2.7926 N.pl3   1  UNL1       -0.2178
      8 C           1.6993    1.4363    1.6998 C.ar    1  UNL1        0.0837
      9 C           2.9874    1.9751    1.8402 C.ar    1  UNL1        0.1588
     10 C           3.5996    2.6921    0.8054 C.ar    1  UNL1        0.0898
     11 C           2.9118    2.8442   -0.3932 C.ar    1  UNL1        0.1367
     12 C           1.6097    2.3681   -0.5281 C.ar    1  UNL1       -0.0238
     13 C           0.9885    1.7088    0.5361 C.ar    1  UNL1       -0.0338
     14 F           3.4629    3.4737   -1.4378 F       1  UNL1       -0.2047
     15 C           4.9473    3.2715    1.0267 C.2     1  UNL1        0.1731
     16 O           5.2223    3.6916    2.1502 O.2     1  UNL1       -0.2915
     17 C           5.9513    3.3716   -0.1077 C.3     1  UNL1        0.0373
     18 C           6.3075    2.0805   -0.8044 C.ar    1  UNL1       -0.0197
     19 C           6.0332    0.8188   -0.2649 C.ar    1  UNL1       -0.0297
     20 C           6.3523   -0.2614   -1.0794 C.ar    1  UNL1        0.0858
     21 C           6.9757   -0.1103   -2.3089 C.ar    1  UNL1        0.1783
     22 N           7.3303    1.0914   -2.8091 N.ar    1  UNL1       -0.2342
     23 C           6.9793    2.1416   -2.0332 C.ar    1  UNL1        0.0337
     24 N           7.1446   -1.3169   -2.9292 N.ar    1  UNL1       -0.2082
     25 C           6.6402   -2.2112   -2.1024 C.ar    1  UNL1        0.1438
     26 N           6.1738   -1.6099   -0.9576 N.ar    1  UNL1       -0.3365
     27 C           6.5330   -3.6432   -2.3141 C.ar    1  UNL1        0.0525
     28 C           5.3150   -4.2062   -2.7188 C.ar    1  UNL1       -0.0483
     29 C           5.2006   -5.5889   -2.8845 C.ar    1  UNL1       -0.0609
     30 C           6.3014   -6.4147   -2.6520 C.ar    1  UNL1       -0.0590
     31 C           7.5168   -5.8594   -2.2532 C.ar    1  UNL1       -0.0257
     32 C           7.6254   -4.4815   -2.0855 C.ar    1  UNL1        0.1340
     33 F           8.7933   -3.9768   -1.6607 F       1  UNL1       -0.2047
     34 F           3.6509    1.7260    2.9820 F       1  UNL1       -0.2027
     35 H           0.1015   -0.5107   -0.6826 H       1  UNL1        0.0230
     36 H           0.6138   -1.8749   -1.6521 H       1  UNL1        0.0230
     37 H           1.8108   -1.0182   -0.6700 H       1  UNL1        0.0230
     38 H          -0.6087   -2.4696    0.5290 H       1  UNL1        0.0279
     39 H           0.9166   -3.2817    0.2095 H       1  UNL1        0.0279
     40 H           1.0418   -2.7267    2.4764 H       1  UNL1        0.0518
     41 H           2.0917   -1.5403    1.7173 H       1  UNL1        0.0518
     42 H           1.6676    0.7279    3.6821 H       1  UNL1        0.1734
     43 H           1.0736    2.5225   -1.4617 H       1  UNL1        0.0647
     44 H          -0.0501    1.4109    0.4232 H       1  UNL1        0.0638
     45 H           5.5808    4.1099   -0.8282 H       1  UNL1        0.0394
     46 H           6.8765    3.7874    0.3121 H       1  UNL1        0.0394
     47 H           5.5821    0.6690    0.7075 H       1  UNL1        0.0643
     48 H           7.2680    3.1040   -2.4549 H       1  UNL1        0.0833
     49 H           5.7428   -2.0916   -0.1830 H       1  UNL1        0.1674
     50 H           4.4545   -3.5710   -2.9187 H       1  UNL1        0.0625
     51 H           4.2549   -6.0218   -3.2032 H       1  UNL1        0.0618
     52 H           6.2138   -7.4902   -2.7863 H       1  UNL1        0.0618
     53 H           8.3818   -6.4889   -2.0689 H       1  UNL1        0.0646
@<TRIPOS>BOND
     1     1     2    1
     2     2     3    1
     3     3     4    1
     4     4     5    2
     5     4     6    2
     6     4     7    1
     7     7     8    1
     8     8     9   ar
     9     9    10   ar
    10    10    11   ar
    11    11    12   ar
    12    12    13   ar
    13     8    13   ar
    14    11    14    1
    15    10    15    1
    16    15    16    2
    17    15    17    1
    18    17    18    1
    19    18    19   ar
    20    19    20   ar
    21    20    21   ar
    22    21    22   ar
    23    22    23   ar
    24    18    23   ar
    25    21    24   ar
    26    24    25   ar
    27    25    26   ar
    28    20    26   ar
    29    25    27    1
    30    27    28   ar
    31    28    29   ar
    32    29    30   ar
    33    30    31   ar
    34    31    32   ar
    35    27    32   ar
    36    32    33    1
    37     9    34    1
    38     1    35    1
    39     1    36    1
    40     1    37    1
    41     2    38    1
    42     2    39    1
    43     3    40    1
    44     3    41    1
    45     7    42    1
    46    12    43    1
    47    13    44    1
    48    17    45    1
    49    17    46    1
    50    19    47    1
    51    23    48    1
    52    26    49    1
    53    28    50    1
    54    29    51    1
    55    30    52    1
    56    31    53    1
@<TRIPOS>MOLECULE
mol_58252026_22
 44 46 0 0 0
SMALL
GASTEIGER

@<TRIPOS>ATOM
      1 C          -1.0946    0.2023   -1.1806 C.3     1  UNL1       -0.0637
      2 C          -0.6821   -0.2783   -2.5516 C.3     1  UNL1       -0.0347
      3 C           0.5899   -1.1154   -2.5769 C.3     1  UNL1        0.0845
      4 S           0.5306   -2.7466   -1.8404 S.O2    1  UNL1        0.0432
      5 O          -0.7472   -3.3499   -2.1417 O.2     1  UNL1       -0.1552
      6 O           1.7588   -3.4350   -2.1874 O.2     1  UNL1       -0.1552
      7 N           0.5584   -2.5371   -0.1639 N.pl3   1  UNL1       -0.2177
      8 C           1.6523   -1.8540    0.4661 C.ar    1  UNL1        0.0864
      9 C           2.9394   -2.3817    0.5333 C.ar    1  UNL1        0.0016
     10 C           3.9409   -1.6461    1.1755 C.ar    1  UNL1        0.1611
     11 C           3.6951   -0.3649    1.6683 C.ar    1  UNL1        0.1717
     12 C           2.4213    0.1773    1.5645 C.ar    1  UNL1        0.0927
     13 C           1.3941   -0.6155    1.0711 C.ar    1  UNL1        0.1590
     14 F           0.1295   -0.2000    1.2122 F       1  UNL1       -0.2027
     15 C           2.1885    1.6020    1.8725 C.2     1  UNL1        0.1731
     16 O           2.5970    2.0253    2.9520 O.2     1  UNL1       -0.2915
     17 C           1.3888    2.4875    0.9184 C.3     1  UNL1        0.0373
     18 C           1.7838    2.6359   -0.5432 C.ar    1  UNL1       -0.0211
     19 C           1.2503    3.7214   -1.2700 C.ar    1  UNL1       -0.0450
     20 C           1.4457    3.7851   -2.6659 C.ar    1  UNL1        0.0329
     21 C           2.1410    2.7342   -3.2493 C.ar    1  UNL1        0.1392
     22 N           2.1495    2.9179   -4.6068 N.ar    1  UNL1       -0.3447
     23 C           1.5413    4.1082   -4.9152 C.ar    1  UNL1        0.0181
     24 C           1.1182    4.6616   -3.7289 C.ar    1  UNL1        0.0444
     25 BR          0.2586    6.3165   -3.5333 Br      1  UNL1       -0.0481
     26 N           2.7139    1.6960   -2.6220 N.ar    1  UNL1       -0.2372
     27 C           2.5334    1.7199   -1.2766 C.ar    1  UNL1        0.0335
     28 F           4.7058    0.3478    2.1832 F       1  UNL1       -0.2016
     29 F           5.1695   -2.1694    1.2804 F       1  UNL1       -0.2024
     30 H          -1.4205   -0.6258   -0.5465 H       1  UNL1        0.0230
     31 H          -1.9144    0.9236   -1.2387 H       1  UNL1        0.0230
     32 H          -0.2589    0.7177   -0.7148 H       1  UNL1        0.0230
     33 H          -1.5162   -0.8156   -3.0118 H       1  UNL1        0.0279
     34 H          -0.5035    0.6146   -3.1653 H       1  UNL1        0.0279
     35 H           0.8357   -1.3002   -3.6308 H       1  UNL1        0.0518
     36 H           1.4469   -0.6004   -2.1472 H       1  UNL1        0.0518
     37 H           0.3584   -3.4507    0.2543 H       1  UNL1        0.1734
     38 H           3.1876   -3.3517    0.1106 H       1  UNL1        0.0667
     39 H           0.3393    2.1726    0.9668 H       1  UNL1        0.0394
     40 H           1.4159    3.4935    1.3594 H       1  UNL1        0.0394
     41 H           0.6699    4.4957   -0.7748 H       1  UNL1        0.0628
     42 H           2.5619    2.2671   -5.2601 H       1  UNL1        0.1668
     43 H           1.4732    4.4507   -5.9394 H       1  UNL1        0.0819
     44 H           3.0341    0.8826   -0.8108 H       1  UNL1        0.0833
@<TRIPOS>BOND
     1     1     2    1
     2     2     3    1
     3     3     4    1
     4     4     5    2
     5     4     6    2
     6     4     7    1
     7     7     8    1
     8     8     9   ar
     9     9    10   ar
    10    10    11   ar
    11    11    12   ar
    12    12    13   ar
    13     8    13   ar
    14    13    14    1
    15    12    15    1
    16    15    16    2
    17    15    17    1
    18    17    18    1
    19    18    19   ar
    20    19    20   ar
    21    20    21   ar
    22    21    22   ar
    23    22    23   ar
    24    23    24   ar
    25    20    24   ar
    26    24    25    1
    27    21    26   ar
    28    26    27   ar
    29    18    27   ar
    30    11    28    1
    31    10    29    1
    32     1    30    1
    33     1    31    1
    34     1    32    1
    35     2    33    1
    36     2    34    1
    37     3    35    1
    38     3    36    1
    39     7    37    1
    40     9    38    1
    41    17    39    1
    42    17    40    1
    43    19    41    1
    44    22    42    1
    45    23    43    1
    46    27    44    1
@<TRIPOS>MOLECULE
mol_58252024_23
 44 46 0 0 0
SMALL
GASTEIGER

@<TRIPOS>ATOM
      1 C           0.8699   -1.4554   -0.6221 C.3     1  UNL1       -0.0637
      2 C           0.6067   -2.2461    0.6488 C.3     1  UNL1       -0.0347
      3 C           1.1870   -1.6127    1.9114 C.3     1  UNL1        0.0845
      4 S           0.2108   -0.2650    2.6052 S.O2    1  UNL1        0.0432
      5 O          -0.9244    0.0167    1.7539 O.2     1  UNL1       -0.1552
      6 O           0.0211   -0.5577    4.0104 O.2     1  UNL1       -0.1552
      7 N           1.2480    1.0496    2.5855 N.pl3   1  UNL1       -0.2178
      8 C           1.8220    1.5929    1.3967 C.ar    1  UNL1        0.0837
      9 C           3.1413    2.0640    1.4621 C.ar    1  UNL1        0.1588
     10 C           3.7909    2.5924    0.3396 C.ar    1  UNL1        0.0898
     11 C           3.0977    2.6200   -0.8669 C.ar    1  UNL1        0.1367
     12 C           1.7665    2.2118   -0.9343 C.ar    1  UNL1       -0.0238
     13 C           1.1156    1.7434    0.2091 C.ar    1  UNL1       -0.0338
     14 F           3.6696    3.0597   -1.9940 F       1  UNL1       -0.2047
     15 C           5.1769    3.1085    0.4881 C.2     1  UNL1        0.1731
     16 O           5.5374    3.5125    1.5937 O.2     1  UNL1       -0.2915
     17 C           6.1273    3.1672   -0.6906 C.3     1  UNL1        0.0373
     18 C           6.5959    1.8549   -1.2689 C.ar    1  UNL1       -0.0211
     19 C           7.4658    1.8880   -2.3728 C.ar    1  UNL1       -0.0450
     20 C           7.9056    0.6710   -2.9218 C.ar    1  UNL1        0.0329
     21 C           7.4267   -0.4949   -2.3357 C.ar    1  UNL1        0.1392
     22 N           7.9361   -1.5627   -3.0255 N.ar    1  UNL1       -0.3447
     23 C           8.7644   -1.1183   -4.0251 C.ar    1  UNL1        0.0181
     24 C           8.7614    0.2553   -3.9690 C.ar    1  UNL1        0.0444
     25 BR          9.7349    1.4088   -5.0821 Br      1  UNL1       -0.0481
     26 N           6.6111   -0.6003   -1.2730 N.ar    1  UNL1       -0.2372
     27 C           6.2498    0.6014   -0.7627 C.ar    1  UNL1        0.0335
     28 F           3.7865    1.9397    2.6343 F       1  UNL1       -0.2027
     29 H           0.1863   -0.6093   -0.7046 H       1  UNL1        0.0230
     30 H           0.6986   -2.0813   -1.5035 H       1  UNL1        0.0230
     31 H           1.9019   -1.0931   -0.6641 H       1  UNL1        0.0230
     32 H          -0.4702   -2.4194    0.7549 H       1  UNL1        0.0279
     33 H           1.0713   -3.2310    0.5210 H       1  UNL1        0.0279
     34 H           1.2113   -2.3794    2.6960 H       1  UNL1        0.0518
     35 H           2.2180   -1.2776    1.7698 H       1  UNL1        0.0518
     36 H           1.8002    1.1393    3.4438 H       1  UNL1        0.1734
     37 H           1.2343    2.2666   -1.8813 H       1  UNL1        0.0647
     38 H           0.0616    1.4869    0.1408 H       1  UNL1        0.0638
     39 H           5.6932    3.8005   -1.4714 H       1  UNL1        0.0394
     40 H           7.0191    3.7063   -0.3410 H       1  UNL1        0.0394
     41 H           7.8039    2.8316   -2.7924 H       1  UNL1        0.0628
     42 H           7.7258   -2.5241   -2.8003 H       1  UNL1        0.1668
     43 H           9.2781   -1.8141   -4.6744 H       1  UNL1        0.0819
     44 H           5.6364    0.4994    0.1284 H       1  UNL1        0.0833
@<TRIPOS>BOND
     1     1     2    1
     2     2     3    1
     3     3     4    1
     4     4     5    2
     5     4     6    2
     6     4     7    1
     7     7     8    1
     8     8     9   ar
     9     9    10   ar
    10    10    11   ar
    11    11    12   ar
    12    12    13   ar
    13     8    13   ar
    14    11    14    1
    15    10    15    1
    16    15    16    2
    17    15    17    1
    18    17    18    1
    19    18    19   ar
    20    19    20   ar
    21    20    21   ar
    22    21    22   ar
    23    22    23   ar
    24    23    24   ar
    25    20    24   ar
    26    24    25    1
    27    21    26   ar
    28    26    27   ar
    29    18    27   ar
    30     9    28    1
    31     1    29    1
    32     1    30    1
    33     1    31    1
    34     2    32    1
    35     2    33    1
    36     3    34    1
    37     3    35    1
    38     7    36    1
    39    12    37    1
    40    13    38    1
    41    17    39    1
    42    17    40    1
    43    19    41    1
    44    22    42    1
    45    23    43    1
    46    27    44    1
@<TRIPOS>MOLECULE
mol_58252002_24
 44 46 0 0 0
SMALL
GASTEIGER

@<TRIPOS>ATOM
      1 C           1.9953   -1.1181   -1.3411 C.3     1  UNL1       -0.0637
      2 C           1.7202   -2.5750   -1.5777 C.3     1  UNL1       -0.0347
      3 C           1.9541   -3.3931   -0.3184 C.3     1  UNL1        0.0845
      4 S           0.6216   -3.3308    0.9003 S.O2    1  UNL1        0.0432
      5 O          -0.5745   -2.7796    0.2939 O.2     1  UNL1       -0.1552
      6 O           0.5690   -4.6324    1.5280 O.2     1  UNL1       -0.1552
      7 N           1.0333   -2.2775    2.1533 N.pl3   1  UNL1       -0.2177
      8 C           1.7226   -1.0406    1.9347 C.ar    1  UNL1        0.0864
      9 C           3.0560   -1.0158    2.3323 C.ar    1  UNL1        0.0016
     10 C           3.7939    0.1404    2.1405 C.ar    1  UNL1        0.1611
     11 C           3.2428    1.2444    1.4903 C.ar    1  UNL1        0.1717
     12 C           1.9125    1.2331    1.0355 C.ar    1  UNL1        0.0927
     13 C           1.1342    0.1096    1.3610 C.ar    1  UNL1        0.1590
     14 F          -0.1701    0.0693    1.0606 F       1  UNL1       -0.2027
     15 C           1.4723    2.3395    0.1099 C.2     1  UNL1        0.1731
     16 O           2.2615    3.2588   -0.1222 O.2     1  UNL1       -0.2915
     17 C           0.1356    2.3366   -0.6305 C.3     1  UNL1        0.0373
     18 C           0.1539    1.6277   -1.9669 C.ar    1  UNL1       -0.0211
     19 C           1.1343    1.8749   -2.9349 C.ar    1  UNL1        0.0335
     20 N           1.3388    1.1526   -4.0693 N.ar    1  UNL1       -0.2372
     21 C           0.4873    0.1167   -4.1924 C.ar    1  UNL1        0.1381
     22 C          -0.5870   -0.1898   -3.3662 C.ar    1  UNL1        0.0189
     23 C          -0.7996    0.6341   -2.2466 C.ar    1  UNL1       -0.0460
     24 C          -1.1578   -1.3956   -3.8574 C.ar    1  UNL1       -0.0351
     25 C          -0.3641   -1.8371   -4.8966 C.ar    1  UNL1        0.0041
     26 N           0.6032   -0.8874   -5.1178 N.ar    1  UNL1       -0.3458
     27 F           4.0456    2.3002    1.2955 F       1  UNL1       -0.2016
     28 F           5.0699    0.1691    2.5476 F       1  UNL1       -0.2024
     29 H           1.0992   -0.6810   -0.9119 H       1  UNL1        0.0230
     30 H           2.2207   -0.5963   -2.2665 H       1  UNL1        0.0230
     31 H           2.8483   -0.9593   -0.6812 H       1  UNL1        0.0230
     32 H           0.6996   -2.7083   -1.9535 H       1  UNL1        0.0279
     33 H           2.3931   -2.9129   -2.3720 H       1  UNL1        0.0279
     34 H           1.9909   -4.4436   -0.6332 H       1  UNL1        0.0518
     35 H           2.9082   -3.1766    0.1668 H       1  UNL1        0.0518
     36 H           0.1511   -2.1193    2.6530 H       1  UNL1        0.1734
     37 H           3.5232   -1.8791    2.7991 H       1  UNL1        0.0667
     38 H          -0.6512    1.9521    0.0220 H       1  UNL1        0.0394
     39 H          -0.1353    3.3855   -0.8097 H       1  UNL1        0.0394
     40 H           1.8660    2.6711   -2.7954 H       1  UNL1        0.0833
     41 H          -1.6002    0.4038   -1.5508 H       1  UNL1        0.0628
     42 H          -1.9927   -1.9352   -3.4288 H       1  UNL1        0.0639
     43 H          -0.3929   -2.7487   -5.4795 H       1  UNL1        0.0807
     44 H           1.3532   -0.9446   -5.7913 H       1  UNL1        0.1668
@<TRIPOS>BOND
     1     1     2    1
     2     2     3    1
     3     3     4    1
     4     4     5    2
     5     4     6    2
     6     4     7    1
     7     7     8    1
     8     8     9   ar
     9     9    10   ar
    10    10    11   ar
    11    11    12   ar
    12    12    13   ar
    13     8    13   ar
    14    13    14    1
    15    12    15    1
    16    15    16    2
    17    15    17    1
    18    17    18    1
    19    18    19   ar
    20    19    20   ar
    21    20    21   ar
    22    21    22   ar
    23    22    23   ar
    24    18    23   ar
    25    22    24   ar
    26    24    25   ar
    27    25    26   ar
    28    21    26   ar
    29    11    27    1
    30    10    28    1
    31     1    29    1
    32     1    30    1
    33     1    31    1
    34     2    32    1
    35     2    33    1
    36     3    34    1
    37     3    35    1
    38     7    36    1
    39     9    37    1
    40    17    38    1
    41    17    39    1
    42    19    40    1
    43    23    41    1
    44    24    42    1
    45    25    43    1
    46    26    44    1
@<TRIPOS>MOLECULE
mol_58251967_25
 44 46 0 0 0
SMALL
GASTEIGER

@<TRIPOS>ATOM
      1 C           0.0881   -1.5956   -0.4340 C.3     1  UNL1       -0.0637
      2 C           0.2487   -2.4858    0.7778 C.3     1  UNL1       -0.0347
      3 C           1.1967   -1.9392    1.8417 C.3     1  UNL1        0.0845
      4 S           0.5003   -0.7911    3.0467 S.O2    1  UNL1        0.0431
      5 O          -0.9343   -0.9808    3.1232 O.2     1  UNL1       -0.1552
      6 O           1.3011   -0.9104    4.2481 O.2     1  UNL1       -0.1552
      7 N           0.7471    0.8011    2.5570 N.pl3   1  UNL1       -0.2206
      8 C           1.7934    1.1275    1.6510 C.ar    1  UNL1        0.0485
      9 C           1.4563    1.2155    0.3058 C.ar    1  UNL1       -0.0261
     10 C           2.4376    1.3426   -0.6840 C.ar    1  UNL1        0.0546
     11 C           3.7540    1.5452   -0.2794 C.ar    1  UNL1        0.1340
     12 C           4.0888    1.5541    1.0802 C.ar    1  UNL1       -0.0240
     13 C           3.1129    1.3043    2.0517 C.ar    1  UNL1       -0.0366
     14 F           4.7442    1.7108   -1.1641 F       1  UNL1       -0.2048
     15 C           1.9817    1.1627   -2.0948 C.2     1  UNL1        0.1703
     16 O           0.7985    0.8814   -2.3031 O.2     1  UNL1       -0.2916
     17 C           2.9182    1.3620   -3.2655 C.3     1  UNL1        0.0372
     18 C           3.0775    2.8227   -3.5644 C.ar    1  UNL1       -0.0211
     19 C           1.9597    3.6624   -3.6274 C.ar    1  UNL1        0.0335
     20 N           1.9884    5.0095   -3.7025 N.ar    1  UNL1       -0.2372
     21 C           3.2392    5.4970   -3.7367 C.ar    1  UNL1        0.1381
     22 C           4.4308    4.7827   -3.7653 C.ar    1  UNL1        0.0189
     23 C           4.3500    3.3856   -3.7049 C.ar    1  UNL1       -0.0460
     24 C           5.4809    5.7360   -3.8184 C.ar    1  UNL1       -0.0351
     25 C           4.9072    6.9895   -3.7632 C.ar    1  UNL1        0.0041
     26 N           3.5459    6.8277   -3.7204 N.ar    1  UNL1       -0.3458
     27 H          -0.5099   -0.7163   -0.1898 H       1  UNL1        0.0230
     28 H          -0.4280   -2.1204   -1.2433 H       1  UNL1        0.0230
     29 H           1.0673   -1.2986   -0.8180 H       1  UNL1        0.0230
     30 H          -0.7367   -2.7171    1.1936 H       1  UNL1        0.0279
     31 H           0.6655   -3.4347    0.4170 H       1  UNL1        0.0279
     32 H           1.4812   -2.7995    2.4642 H       1  UNL1        0.0518
     33 H           2.1317   -1.5465    1.4388 H       1  UNL1        0.0518
     34 H           0.8328    1.3371    3.4262 H       1  UNL1        0.1733
     35 H           0.4072    1.1516    0.0262 H       1  UNL1        0.0644
     36 H           5.1221    1.7283    1.3712 H       1  UNL1        0.0647
     37 H           3.3934    1.2611    3.1014 H       1  UNL1        0.0637
     38 H           3.8693    0.8563   -3.0722 H       1  UNL1        0.0394
     39 H           2.4897    0.8541   -4.1390 H       1  UNL1        0.0394
     40 H           0.9515    3.2505   -3.5719 H       1  UNL1        0.0833
     41 H           5.2477    2.7760   -3.6904 H       1  UNL1        0.0628
     42 H           6.5415    5.5262   -3.8562 H       1  UNL1        0.0639
     43 H           5.3463    7.9770   -3.7444 H       1  UNL1        0.0807
     44 H           2.8500    7.5559   -3.6582 H       1  UNL1        0.1668
@<TRIPOS>BOND
     1     1     2    1
     2     2     3    1
     3     3     4    1
     4     4     5    2
     5     4     6    2
     6     4     7    1
     7     7     8    1
     8     8     9   ar
     9     9    10   ar
    10    10    11   ar
    11    11    12   ar
    12    12    13   ar
    13     8    13   ar
    14    11    14    1
    15    10    15    1
    16    15    16    2
    17    15    17    1
    18    17    18    1
    19    18    19   ar
    20    19    20   ar
    21    20    21   ar
    22    21    22   ar
    23    22    23   ar
    24    18    23   ar
    25    22    24   ar
    26    24    25   ar
    27    25    26   ar
    28    21    26   ar
    29     1    27    1
    30     1    28    1
    31     1    29    1
    32     2    30    1
    33     2    31    1
    34     3    32    1
    35     3    33    1
    36     7    34    1
    37     9    35    1
    38    12    36    1
    39    13    37    1
    40    17    38    1
    41    17    39    1
    42    19    40    1
    43    23    41    1
    44    24    42    1
    45    25    43    1
    46    26    44    1
@<TRIPOS>MOLECULE
mol_58252042_26
 44 46 0 0 0
SMALL
GASTEIGER

@<TRIPOS>ATOM
      1 C           0.8396   -0.4182   -1.3804 C.3     1  UNL1       -0.0637
      2 C           0.5749   -1.8917   -1.1175 C.3     1  UNL1       -0.0347
      3 C           1.1592   -2.4093    0.1955 C.3     1  UNL1        0.0845
      4 S           0.1610   -2.0680    1.6579 S.O2    1  UNL1        0.0432
      5 O          -0.9817   -1.2550    1.3014 O.2     1  UNL1       -0.1552
      6 O          -0.0181   -3.3246    2.3539 O.2     1  UNL1       -0.1552
      7 N           1.1702   -1.1780    2.6519 N.pl3   1  UNL1       -0.2178
      8 C           1.7601    0.0674    2.2813 C.ar    1  UNL1        0.0837
      9 C           3.0550    0.3377    2.7473 C.ar    1  UNL1        0.1588
     10 C           3.7193    1.5293    2.4327 C.ar    1  UNL1        0.0898
     11 C           3.0705    2.4371    1.5995 C.ar    1  UNL1        0.1367
     12 C           1.7621    2.2084    1.1738 C.ar    1  UNL1       -0.0238
     13 C           1.0890    1.0481    1.5613 C.ar    1  UNL1       -0.0338
     14 F           3.6576    3.5735    1.2056 F       1  UNL1       -0.2047
     15 C           5.0557    1.7882    3.0332 C.2     1  UNL1        0.1731
     16 O           5.3866    1.1634    4.0409 O.2     1  UNL1       -0.2915
     17 C           6.0027    2.8095    2.4363 C.3     1  UNL1        0.0373
     18 C           6.5351    2.4725    1.0685 C.ar    1  UNL1       -0.0210
     19 C           6.9658    3.5077    0.2244 C.ar    1  UNL1       -0.0433
     20 C           7.4730    3.1629   -1.0372 C.ar    1  UNL1        0.0541
     21 C           7.5162    1.8128   -1.3648 C.ar    1  UNL1        0.1409
     22 N           8.0158    1.6957   -2.6363 N.ar    1  UNL1       -0.3431
     23 C           8.3189    2.9386   -3.1342 C.ar    1  UNL1        0.0395
     24 C           7.9953    3.8442   -2.1550 C.ar    1  UNL1        0.1498
     25 F           8.1464    5.1344   -2.2535 F       1  UNL1       -0.2032
     26 N           7.1481    0.7746   -0.5942 N.ar    1  UNL1       -0.2371
     27 C           6.6921    1.1574    0.6223 C.ar    1  UNL1        0.0335
     28 F           3.6558   -0.6137    3.4820 F       1  UNL1       -0.2027
     29 H           0.1459    0.2099   -0.8198 H       1  UNL1        0.0230
     30 H           0.6836   -0.1851   -2.4385 H       1  UNL1        0.0230
     31 H           1.8675   -0.1415   -1.1257 H       1  UNL1        0.0230
     32 H          -0.5023   -2.0850   -1.1736 H       1  UNL1        0.0279
     33 H           1.0371   -2.4546   -1.9369 H       1  UNL1        0.0279
     34 H           1.2108   -3.5037    0.1367 H       1  UNL1        0.0518
     35 H           2.1807   -2.0573    0.3624 H       1  UNL1        0.0518
     36 H           1.7055   -1.7596    3.3039 H       1  UNL1        0.1734
     37 H           1.2636    2.9464    0.5492 H       1  UNL1        0.0647
     38 H           0.0472    0.9279    1.2765 H       1  UNL1        0.0638
     39 H           5.5156    3.7907    2.4506 H       1  UNL1        0.0394
     40 H           6.8615    2.8973    3.1148 H       1  UNL1        0.0394
     41 H           6.9157    4.5493    0.5281 H       1  UNL1        0.0629
     42 H           8.1381    0.8113   -3.1078 H       1  UNL1        0.1669
     43 H           8.7332    3.0654   -4.1240 H       1  UNL1        0.0837
     44 H           6.4419    0.3149    1.2660 H       1  UNL1        0.0833
@<TRIPOS>BOND
     1     1     2    1
     2     2     3    1
     3     3     4    1
     4     4     5    2
     5     4     6    2
     6     4     7    1
     7     7     8    1
     8     8     9   ar
     9     9    10   ar
    10    10    11   ar
    11    11    12   ar
    12    12    13   ar
    13     8    13   ar
    14    11    14    1
    15    10    15    1
    16    15    16    2
    17    15    17    1
    18    17    18    1
    19    18    19   ar
    20    19    20   ar
    21    20    21   ar
    22    21    22   ar
    23    22    23   ar
    24    23    24   ar
    25    20    24   ar
    26    24    25    1
    27    21    26   ar
    28    26    27   ar
    29    18    27   ar
    30     9    28    1
    31     1    29    1
    32     1    30    1
    33     1    31    1
    34     2    32    1
    35     2    33    1
    36     3    34    1
    37     3    35    1
    38     7    36    1
    39    12    37    1
    40    13    38    1
    41    17    39    1
    42    17    40    1
    43    19    41    1
    44    22    42    1
    45    23    43    1
    46    27    44    1
@<TRIPOS>MOLECULE
mol_58251942_27
 44 46 0 0 0
SMALL
GASTEIGER

@<TRIPOS>ATOM
      1 C          -1.2123    0.5579   -0.5561 C.3     1  UNL1       -0.0637
      2 C          -0.9459    1.0327   -1.9651 C.3     1  UNL1       -0.0347
      3 C           0.3493    0.5094   -2.5694 C.3     1  UNL1        0.0845
      4 S           0.4071   -1.2136   -3.0418 S.O2    1  UNL1        0.0432
      5 O          -0.8717   -1.5937   -3.5939 O.2     1  UNL1       -0.1552
      6 O           1.6206   -1.4198   -3.8108 O.2     1  UNL1       -0.1552
      7 N           0.5839   -2.0991   -1.6103 N.pl3   1  UNL1       -0.2177
      8 C           1.7409   -1.8796   -0.7848 C.ar    1  UNL1        0.0862
      9 C           3.0183   -2.2830   -1.1655 C.ar    1  UNL1       -0.0012
     10 C           4.0936   -2.0275   -0.3120 C.ar    1  UNL1        0.1260
     11 C           3.9338   -1.3009    0.8645 C.ar    1  UNL1       -0.0131
     12 C           2.6611   -0.8533    1.2170 C.ar    1  UNL1        0.0575
     13 C           1.5696   -1.2446    0.4526 C.ar    1  UNL1        0.1562
     14 F           0.3363   -1.0764    0.9439 F       1  UNL1       -0.2028
     15 C           2.5183    0.0940    2.3483 C.2     1  UNL1        0.1704
     16 O           3.2260   -0.0923    3.3377 O.2     1  UNL1       -0.2916
     17 C           1.5295    1.2505    2.2818 C.3     1  UNL1        0.0372
     18 C           1.6195    2.2744    1.1633 C.ar    1  UNL1       -0.0211
     19 C           0.7240    3.3553    1.2107 C.ar    1  UNL1        0.0335
     20 N           0.5162    4.2887    0.2491 N.ar    1  UNL1       -0.2372
     21 C           1.2685    4.0834   -0.8431 C.ar    1  UNL1        0.1381
     22 C           2.2288    3.0984   -1.0273 C.ar    1  UNL1        0.0189
     23 C           2.4441    2.1906    0.0329 C.ar    1  UNL1       -0.0460
     24 C           2.7178    3.2497   -2.3563 C.ar    1  UNL1       -0.0351
     25 C           2.0224    4.2877   -2.9433 C.ar    1  UNL1        0.0041
     26 N           1.1774    4.8123   -1.9977 N.ar    1  UNL1       -0.3458
     27 F           5.3153   -2.4603   -0.6460 F       1  UNL1       -0.2054
     28 H          -1.4468   -0.5089   -0.5296 H       1  UNL1        0.0230
     29 H          -2.0451    1.1001   -0.1005 H       1  UNL1        0.0230
     30 H          -0.3404    0.7558    0.0612 H       1  UNL1        0.0230
     31 H          -1.8045    0.7942   -2.5984 H       1  UNL1        0.0279
     32 H          -0.8762    2.1271   -1.9267 H       1  UNL1        0.0279
     33 H           0.5216    1.0569   -3.5049 H       1  UNL1        0.0518
     34 H           1.2163    0.6912   -1.9366 H       1  UNL1        0.0518
     35 H           0.4424   -3.0844   -1.8504 H       1  UNL1        0.1734
     36 H           3.2011   -2.8013   -2.1025 H       1  UNL1        0.0666
     37 H           4.7975   -1.0740    1.4847 H       1  UNL1        0.0654
     38 H           0.5174    0.8276    2.2939 H       1  UNL1        0.0394
     39 H           1.6350    1.7984    3.2279 H       1  UNL1        0.0394
     40 H           0.0780    3.4908    2.0781 H       1  UNL1        0.0833
     41 H           3.1882    1.4179   -0.1007 H       1  UNL1        0.0628
     42 H           3.4531    2.6304   -2.8543 H       1  UNL1        0.0639
     43 H           2.0525    4.6955   -3.9458 H       1  UNL1        0.0807
     44 H           0.5369    5.5827   -2.1252 H       1  UNL1        0.1668
@<TRIPOS>BOND
     1     1     2    1
     2     2     3    1
     3     3     4    1
     4     4     5    2
     5     4     6    2
     6     4     7    1
     7     7     8    1
     8     8     9   ar
     9     9    10   ar
    10    10    11   ar
    11    11    12   ar
    12    12    13   ar
    13     8    13   ar
    14    13    14    1
    15    12    15    1
    16    15    16    2
    17    15    17    1
    18    17    18    1
    19    18    19   ar
    20    19    20   ar
    21    20    21   ar
    22    21    22   ar
    23    22    23   ar
    24    18    23   ar
    25    22    24   ar
    26    24    25   ar
    27    25    26   ar
    28    21    26   ar
    29    10    27    1
    30     1    28    1
    31     1    29    1
    32     1    30    1
    33     2    31    1
    34     2    32    1
    35     3    33    1
    36     3    34    1
    37     7    35    1
    38     9    36    1
    39    11    37    1
    40    17    38    1
    41    17    39    1
    42    19    40    1
    43    23    41    1
    44    24    42    1
    45    25    43    1
    46    26    44    1
@<TRIPOS>MOLECULE
mol_58251999_28
 47 49 0 0 0
SMALL
GASTEIGER

@<TRIPOS>ATOM
      1 C           0.9241   -1.0090   -1.2110 C.3     1  UNL1       -0.0637
      2 C           0.5914   -2.2412   -0.3866 C.3     1  UNL1       -0.0347
      3 C           1.1508   -2.2158    1.0342 C.3     1  UNL1        0.0845
      4 S           0.1878   -1.2664    2.2251 S.O2    1  UNL1        0.0432
      5 O          -0.9513   -0.6586    1.5723 O.2     1  UNL1       -0.1552
      6 O           0.0030   -2.1131    3.3846 O.2     1  UNL1       -0.1552
      7 N           1.2332   -0.0703    2.7433 N.pl3   1  UNL1       -0.2178
      8 C           1.7579    0.9777    1.9294 C.ar    1  UNL1        0.0837
      9 C           3.0212    1.4956    2.2553 C.ar    1  UNL1        0.1588
     10 C           3.6154    2.5137    1.4990 C.ar    1  UNL1        0.0898
     11 C           2.9365    2.9898    0.3825 C.ar    1  UNL1        0.1367
     12 C           1.6574    2.5299    0.0806 C.ar    1  UNL1       -0.0238
     13 C           1.0502    1.5635    0.8859 C.ar    1  UNL1       -0.0338
     14 F           3.4687    3.9248   -0.4138 F       1  UNL1       -0.2047
     15 C           4.9260    3.0652    1.9263 C.2     1  UNL1        0.1731
     16 O           5.1859    3.0916    3.1291 O.2     1  UNL1       -0.2915
     17 C           5.9115    3.6145    0.9107 C.3     1  UNL1        0.0373
     18 C           6.3805    2.6507   -0.1495 C.ar    1  UNL1       -0.0211
     19 C           7.0296    3.1487   -1.2841 C.ar    1  UNL1        0.0335
     20 N           7.5006    2.4201   -2.3247 N.ar    1  UNL1       -0.2372
     21 C           7.2769    1.1032   -2.1814 C.ar    1  UNL1        0.1384
     22 C           6.6709    0.4636   -1.1094 C.ar    1  UNL1        0.0194
     23 C           6.2438    1.2604   -0.0372 C.ar    1  UNL1       -0.0460
     24 C           6.6381   -0.9217   -1.4146 C.ar    1  UNL1       -0.0263
     25 C           7.2152   -1.0911   -2.6602 C.ar    1  UNL1        0.0842
     26 N           7.6233    0.1492   -3.0973 N.ar    1  UNL1       -0.3385
     27 C           7.4284   -2.2988   -3.4883 C.3     1  UNL1        0.2788
     28 F           6.9451   -2.1033   -4.7432 F       1  UNL1       -0.2023
     29 F           8.7549   -2.5519   -3.6270 F       1  UNL1       -0.2023
     30 F           3.6748    0.9451    3.2926 F       1  UNL1       -0.2027
     31 H           0.2531   -0.1850   -0.9674 H       1  UNL1        0.0230
     32 H           0.7864   -1.2147   -2.2773 H       1  UNL1        0.0230
     33 H           1.9605   -0.6900   -1.0616 H       1  UNL1        0.0230
     34 H          -0.4934   -2.3969   -0.3821 H       1  UNL1        0.0279
     35 H           1.0278   -3.1039   -0.9042 H       1  UNL1        0.0279
     36 H           1.1378   -3.2440    1.4181 H       1  UNL1        0.0518
     37 H           2.1920   -1.8837    1.0661 H       1  UNL1        0.0518
     38 H           1.7529   -0.3104    3.5925 H       1  UNL1        0.1734
     39 H           1.1269    2.9370   -0.7769 H       1  UNL1        0.0647
     40 H           0.0246    1.2817    0.6664 H       1  UNL1        0.0638
     41 H           5.4774    4.5134    0.4585 H       1  UNL1        0.0394
     42 H           6.7966    3.9510    1.4663 H       1  UNL1        0.0394
     43 H           7.2017    4.2192   -1.3927 H       1  UNL1        0.0833
     44 H           5.8119    0.7852    0.8359 H       1  UNL1        0.0628
     45 H           6.2194   -1.7056   -0.7966 H       1  UNL1        0.0644
     46 H           8.0913    0.3506   -3.9704 H       1  UNL1        0.1672
     47 H           6.9448   -3.1831   -3.0638 H       1  UNL1        0.1087
@<TRIPOS>BOND
     1     1     2    1
     2     2     3    1
     3     3     4    1
     4     4     5    2
     5     4     6    2
     6     4     7    1
     7     7     8    1
     8     8     9   ar
     9     9    10   ar
    10    10    11   ar
    11    11    12   ar
    12    12    13   ar
    13     8    13   ar
    14    11    14    1
    15    10    15    1
    16    15    16    2
    17    15    17    1
    18    17    18    1
    19    18    19   ar
    20    19    20   ar
    21    20    21   ar
    22    21    22   ar
    23    22    23   ar
    24    18    23   ar
    25    22    24   ar
    26    24    25   ar
    27    25    26   ar
    28    21    26   ar
    29    25    27    1
    30    27    28    1
    31    27    29    1
    32     9    30    1
    33     1    31    1
    34     1    32    1
    35     1    33    1
    36     2    34    1
    37     2    35    1
    38     3    36    1
    39     3    37    1
    40     7    38    1
    41    12    39    1
    42    13    40    1
    43    17    41    1
    44    17    42    1
    45    19    43    1
    46    23    44    1
    47    24    45    1
    48    26    46    1
    49    27    47    1
@<TRIPOS>MOLECULE
mol_58251990_29
 44 46 0 0 0
SMALL
GASTEIGER

@<TRIPOS>ATOM
      1 C          -1.2725   -0.1387    1.1099 C.3     1  UNL1       -0.0637
      2 C          -0.8820    0.3806    2.4728 C.3     1  UNL1       -0.0347
      3 C           0.3915    1.2164    2.4931 C.3     1  UNL1        0.0845
      4 S           0.3434    2.8216    1.7010 S.O2    1  UNL1        0.0432
      5 O          -0.9527    3.4166    1.9320 O.2     1  UNL1       -0.1552
      6 O           1.5445    3.5422    2.0819 O.2     1  UNL1       -0.1552
      7 N           0.4450    2.5658    0.0355 N.pl3   1  UNL1       -0.2178
      8 C           1.5503    1.8388   -0.5249 C.ar    1  UNL1        0.0835
      9 C           2.8465    2.3528   -0.5728 C.ar    1  UNL1       -0.0365
     10 C           3.8725    1.6011   -1.1669 C.ar    1  UNL1       -0.0591
     11 C           3.6269    0.3029   -1.6240 C.ar    1  UNL1       -0.0484
     12 C           2.3414   -0.2304   -1.5164 C.ar    1  UNL1        0.0547
     13 C           1.3015    0.5790   -1.0811 C.ar    1  UNL1        0.1560
     14 F           0.0402    0.1608   -1.2438 F       1  UNL1       -0.2028
     15 C           2.1418   -1.6824   -1.7344 C.2     1  UNL1        0.1703
     16 O           2.6868   -2.1932   -2.7120 O.2     1  UNL1       -0.2916
     17 C           1.2926   -2.5034   -0.7665 C.3     1  UNL1        0.0372
     18 C           1.6389   -2.5530    0.7149 C.ar    1  UNL1       -0.0211
     19 C           2.4294   -1.6242    1.3904 C.ar    1  UNL1        0.0335
     20 N           2.5823   -1.5009    2.7346 N.ar    1  UNL1       -0.2372
     21 C           1.9178   -2.4383    3.4267 C.ar    1  UNL1        0.1381
     22 C           1.1684   -3.4858    2.9119 C.ar    1  UNL1        0.0189
     23 C           1.0227   -3.5409    1.5116 C.ar    1  UNL1       -0.0460
     24 C           0.7183   -4.2479    4.0255 C.ar    1  UNL1       -0.0351
     25 C           1.1425   -3.6068    5.1727 C.ar    1  UNL1        0.0041
     26 N           1.8573   -2.4995    4.7920 N.ar    1  UNL1       -0.3458
     27 H          -1.5706    0.6722    0.4408 H       1  UNL1        0.0230
     28 H          -2.1033   -0.8467    1.1725 H       1  UNL1        0.0230
     29 H          -0.4340   -0.6811    0.6823 H       1  UNL1        0.0230
     30 H          -1.7224    0.9331    2.9025 H       1  UNL1        0.0279
     31 H          -0.7167   -0.4936    3.1162 H       1  UNL1        0.0279
     32 H           0.6171    1.4363    3.5448 H       1  UNL1        0.0518
     33 H           1.2557    0.6881    2.0968 H       1  UNL1        0.0518
     34 H           0.3133    3.4768   -0.4121 H       1  UNL1        0.1734
     35 H           3.0759    3.3389   -0.1736 H       1  UNL1        0.0637
     36 H           4.8772    2.0145   -1.2456 H       1  UNL1        0.0618
     37 H           4.4372   -0.3007   -2.0306 H       1  UNL1        0.0625
     38 H           0.2486   -2.1872   -0.8769 H       1  UNL1        0.0394
     39 H           1.3281   -3.5361   -1.1398 H       1  UNL1        0.0394
     40 H           2.9872   -0.8571    0.8691 H       1  UNL1        0.0833
     41 H           0.4101   -4.3202    1.0671 H       1  UNL1        0.0628
     42 H           0.1323   -5.1572    3.9973 H       1  UNL1        0.0639
     43 H           0.9972   -3.8383    6.2201 H       1  UNL1        0.0807
     44 H           2.2815   -1.8182    5.4048 H       1  UNL1        0.1668
@<TRIPOS>BOND
     1     1     2    1
     2     2     3    1
     3     3     4    1
     4     4     5    2
     5     4     6    2
     6     4     7    1
     7     7     8    1
     8     8     9   ar
     9     9    10   ar
    10    10    11   ar
    11    11    12   ar
    12    12    13   ar
    13     8    13   ar
    14    13    14    1
    15    12    15    1
    16    15    16    2
    17    15    17    1
    18    17    18    1
    19    18    19   ar
    20    19    20   ar
    21    20    21   ar
    22    21    22   ar
    23    22    23   ar
    24    18    23   ar
    25    22    24   ar
    26    24    25   ar
    27    25    26   ar
    28    21    26   ar
    29     1    27    1
    30     1    28    1
    31     1    29    1
    32     2    30    1
    33     2    31    1
    34     3    32    1
    35     3    33    1
    36     7    34    1
    37     9    35    1
    38    10    36    1
    39    11    37    1
    40    17    38    1
    41    17    39    1
    42    19    40    1
    43    23    41    1
    44    24    42    1
    45    25    43    1
    46    26    44    1
@<TRIPOS>MOLECULE
mol_58251952_30
 44 46 0 0 0
SMALL
GASTEIGER

@<TRIPOS>ATOM
      1 C           0.7811   -1.3076    0.9161 C.3     1  UNL1       -0.0637
      2 C           0.5695   -0.6728    2.2801 C.3     1  UNL1       -0.0347
      3 C           1.2031    0.7086    2.4375 C.3     1  UNL1        0.0845
      4 S           0.2923    2.0623    1.6703 S.O2    1  UNL1        0.0432
      5 O          -0.8882    1.5560    1.0109 O.2     1  UNL1       -0.1552
      6 O           0.1802    3.1129    2.6647 O.2     1  UNL1       -0.1552
      7 N           1.3440    2.6819    0.5264 N.pl3   1  UNL1       -0.2178
      8 C           1.8276    1.9630   -0.6076 C.ar    1  UNL1        0.0837
      9 C           3.1377    2.2096   -1.0546 C.ar    1  UNL1        0.1588
     10 C           3.6730    1.5440   -2.1674 C.ar    1  UNL1        0.0898
     11 C           2.8767    0.5979   -2.8086 C.ar    1  UNL1        0.1367
     12 C           1.5633    0.3741   -2.4043 C.ar    1  UNL1       -0.0238
     13 C           1.0263    1.0926   -1.3372 C.ar    1  UNL1       -0.0338
     14 F           3.3173   -0.0953   -3.8650 F       1  UNL1       -0.2047
     15 C           5.0275    1.9101   -2.6650 C.2     1  UNL1        0.1731
     16 O           5.4763    3.0267   -2.4057 O.2     1  UNL1       -0.2915
     17 C           5.8498    0.9324   -3.4903 C.3     1  UNL1        0.0373
     18 C           6.2574   -0.2896   -2.7153 C.ar    1  UNL1       -0.0211
     19 C           6.9594   -0.1673   -1.5135 C.ar    1  UNL1        0.0335
     20 N           7.3153   -1.1832   -0.6952 N.ar    1  UNL1       -0.2372
     21 C           6.9394   -2.3861   -1.1627 C.ar    1  UNL1        0.1381
     22 C           6.2778   -2.6645   -2.3525 C.ar    1  UNL1        0.0189
     23 C           5.9373   -1.5762   -3.1706 C.ar    1  UNL1       -0.0460
     24 C           6.1036   -4.0738   -2.4067 C.ar    1  UNL1       -0.0351
     25 C           6.6343   -4.6046   -1.2488 C.ar    1  UNL1        0.0041
     26 N           7.1497   -3.5694   -0.5105 N.ar    1  UNL1       -0.3458
     27 F           3.8772    3.0920   -0.3613 F       1  UNL1       -0.2027
     28 H           0.0803   -0.9017    0.1852 H       1  UNL1        0.0230
     29 H           0.5919   -2.3848    0.9616 H       1  UNL1        0.0230
     30 H           1.8051   -1.1620    0.5583 H       1  UNL1        0.0230
     31 H          -0.5027   -0.6412    2.5051 H       1  UNL1        0.0279
     32 H           1.0245   -1.3390    3.0230 H       1  UNL1        0.0279
     33 H           1.2219    0.9490    3.5081 H       1  UNL1        0.0518
     34 H           2.2403    0.7306    2.0929 H       1  UNL1        0.0518
     35 H           1.8824    3.4932    0.8415 H       1  UNL1        0.1734
     36 H           0.9512   -0.3486   -2.9380 H       1  UNL1        0.0647
     37 H          -0.0225    0.9487   -1.0942 H       1  UNL1        0.0638
     38 H           5.3159    0.6869   -4.4138 H       1  UNL1        0.0394
     39 H           6.7611    1.4483   -3.8207 H       1  UNL1        0.0394
     40 H           7.2606    0.8149   -1.1489 H       1  UNL1        0.0833
     41 H           5.4169   -1.7355   -4.1101 H       1  UNL1        0.0628
     42 H           5.6254   -4.6378   -3.1970 H       1  UNL1        0.0639
     43 H           6.6910   -5.6229   -0.8882 H       1  UNL1        0.0807
     44 H           7.6072   -3.6373    0.3866 H       1  UNL1        0.1668
@<TRIPOS>BOND
     1     1     2    1
     2     2     3    1
     3     3     4    1
     4     4     5    2
     5     4     6    2
     6     4     7    1
     7     7     8    1
     8     8     9   ar
     9     9    10   ar
    10    10    11   ar
    11    11    12   ar
    12    12    13   ar
    13     8    13   ar
    14    11    14    1
    15    10    15    1
    16    15    16    2
    17    15    17    1
    18    17    18    1
    19    18    19   ar
    20    19    20   ar
    21    20    21   ar
    22    21    22   ar
    23    22    23   ar
    24    18    23   ar
    25    22    24   ar
    26    24    25   ar
    27    25    26   ar
    28    21    26   ar
    29     9    27    1
    30     1    28    1
    31     1    29    1
    32     1    30    1
    33     2    31    1
    34     2    32    1
    35     3    33    1
    36     3    34    1
    37     7    35    1
    38    12    36    1
    39    13    37    1
    40    17    38    1
    41    17    39    1
    42    19    40    1
    43    23    41    1
    44    24    42    1
    45    25    43    1
    46    26    44    1
@<TRIPOS>MOLECULE
mol_58251946_31
 46 48 0 0 0
SMALL
GASTEIGER

@<TRIPOS>ATOM
      1 C           0.7887    1.3782    0.6286 C.3     1  UNL1       -0.0637
      2 C           0.4948    2.2922   -0.5465 C.3     1  UNL1       -0.0347
      3 C           1.0935    1.8237   -1.8734 C.3     1  UNL1        0.0845
      4 S           0.1929    0.4897   -2.6951 S.O2    1  UNL1        0.0432
      5 O          -0.9840    0.1445   -1.9305 O.2     1  UNL1       -0.1552
      6 O           0.0747    0.8665   -4.0902 O.2     1  UNL1       -0.1552
      7 N           1.2269   -0.8174   -2.7170 N.pl3   1  UNL1       -0.2178
      8 C           1.7658   -1.4841   -1.5800 C.ar    1  UNL1        0.0837
      9 C           3.0734   -1.9877   -1.6649 C.ar    1  UNL1        0.1588
     10 C           3.7067   -2.5739   -0.5610 C.ar    1  UNL1        0.0898
     11 C           3.0138   -2.6331    0.6431 C.ar    1  UNL1        0.1367
     12 C           1.6874   -2.2135    0.7196 C.ar    1  UNL1       -0.0238
     13 C           1.0494   -1.6870   -0.4073 C.ar    1  UNL1       -0.0338
     14 F           3.5902   -3.1004    1.7571 F       1  UNL1       -0.2047
     15 C           5.1018   -3.0647   -0.7016 C.2     1  UNL1        0.1731
     16 O           5.4360   -3.5629   -1.7765 O.2     1  UNL1       -0.2915
     17 C           6.0840   -2.9837    0.4575 C.3     1  UNL1        0.0373
     18 C           6.4036   -1.6083    0.9916 C.ar    1  UNL1       -0.0211
     19 C           7.3503   -1.4680    2.0146 C.ar    1  UNL1        0.0335
     20 N           7.7459   -0.3070    2.6021 N.ar    1  UNL1       -0.2372
     21 C           7.1121    0.7699    2.1033 C.ar    1  UNL1        0.1390
     22 C           6.1520    0.7822    1.1027 C.ar    1  UNL1        0.0201
     23 C           5.8117   -0.4378    0.5104 C.ar    1  UNL1       -0.0460
     24 C           5.7601    2.1252    0.9036 C.ar    1  UNL1       -0.0191
     25 C           6.5538    2.9059    1.7136 C.ar    1  UNL1        0.0922
     26 N           7.3341    2.0713    2.4755 N.ar    1  UNL1       -0.3328
     27 C           6.6078    4.3236    1.7034 C.1     1  UNL1       -0.0517
     28 C           6.6338    5.5136    1.5671 C.1     1  UNL1       -0.1125
     29 F           3.7374   -1.8188   -2.8208 F       1  UNL1       -0.2027
     30 H           0.1156    0.5215    0.6222 H       1  UNL1        0.0230
     31 H           0.6125    1.8957    1.5764 H       1  UNL1        0.0230
     32 H           1.8272    1.0332    0.6204 H       1  UNL1        0.0230
     33 H          -0.5886    2.4340   -0.6339 H       1  UNL1        0.0279
     34 H           0.9183    3.2754   -0.3080 H       1  UNL1        0.0279
     35 H           1.0401    2.6705   -2.5708 H       1  UNL1        0.0518
     36 H           2.1496    1.5548   -1.7889 H       1  UNL1        0.0518
     37 H           1.6394   -1.0183   -3.6316 H       1  UNL1        0.1734
     38 H           1.1533   -2.2909    1.6638 H       1  UNL1        0.0647
     39 H          -0.0015   -1.4186   -0.3375 H       1  UNL1        0.0638
     40 H           5.7369   -3.6380    1.2640 H       1  UNL1        0.0394
     41 H           7.0248   -3.4217    0.0956 H       1  UNL1        0.0394
     42 H           7.8623   -2.3461    2.4088 H       1  UNL1        0.0833
     43 H           5.1197   -0.4155   -0.3179 H       1  UNL1        0.0628
     44 H           5.0290    2.4876    0.1937 H       1  UNL1        0.0652
     45 H           8.0200    2.3524    3.1598 H       1  UNL1        0.1679
     46 H           6.6477    6.5623    1.3779 H       1  UNL1        0.1232
@<TRIPOS>BOND
     1     1     2    1
     2     2     3    1
     3     3     4    1
     4     4     5    2
     5     4     6    2
     6     4     7    1
     7     7     8    1
     8     8     9   ar
     9     9    10   ar
    10    10    11   ar
    11    11    12   ar
    12    12    13   ar
    13     8    13   ar
    14    11    14    1
    15    10    15    1
    16    15    16    2
    17    15    17    1
    18    17    18    1
    19    18    19   ar
    20    19    20   ar
    21    20    21   ar
    22    21    22   ar
    23    22    23   ar
    24    18    23   ar
    25    22    24   ar
    26    24    25   ar
    27    25    26   ar
    28    21    26   ar
    29    25    27    1
    30    27    28    3
    31     9    29    1
    32     1    30    1
    33     1    31    1
    34     1    32    1
    35     2    33    1
    36     2    34    1
    37     3    35    1
    38     3    36    1
    39     7    37    1
    40    12    38    1
    41    13    39    1
    42    17    40    1
    43    17    41    1
    44    19    42    1
    45    23    43    1
    46    24    44    1
    47    26    45    1
    48    28    46    1
@<TRIPOS>MOLECULE
mol_58252001_32
 54 57 0 0 0
SMALL
GASTEIGER

@<TRIPOS>ATOM
      1 C           0.6815   -1.3618   -0.4236 C.3     1  UNL1       -0.0637
      2 C           0.4632   -2.1435    0.8618 C.3     1  UNL1       -0.0347
      3 C           1.0915   -1.5018    2.0970 C.3     1  UNL1        0.0845
      4 S           0.1628   -0.1203    2.7893 S.O2    1  UNL1        0.0432
      5 O          -0.9878    0.1684    1.9611 O.2     1  UNL1       -0.1552
      6 O           0.0021   -0.3859    4.2030 O.2     1  UNL1       -0.1552
      7 N           1.2244    1.1702    2.7211 N.pl3   1  UNL1       -0.2178
      8 C           1.7701    1.7111    1.5184 C.ar    1  UNL1        0.0837
      9 C           3.0783    2.2168    1.5599 C.ar    1  UNL1        0.1588
     10 C           3.7006    2.7389    0.4191 C.ar    1  UNL1        0.0898
     11 C           2.9938    2.7304   -0.7796 C.ar    1  UNL1        0.1367
     12 C           1.6736    2.2880   -0.8243 C.ar    1  UNL1       -0.0238
     13 C           1.0484    1.8240    0.3353 C.ar    1  UNL1       -0.0338
     14 F           3.5443    3.1617   -1.9205 F       1  UNL1       -0.2047
     15 C           5.0845    3.2653    0.5295 C.2     1  UNL1        0.1731
     16 O           5.4309    3.7726    1.5965 O.2     1  UNL1       -0.2915
     17 C           6.0383    3.2223   -0.6494 C.3     1  UNL1        0.0373
     18 C           6.5036    1.8667   -1.1218 C.ar    1  UNL1       -0.0211
     19 C           5.9413    0.6493   -0.7198 C.ar    1  UNL1       -0.0458
     20 C           6.4319   -0.5436   -1.2802 C.ar    1  UNL1        0.0221
     21 C           7.4978   -0.4336   -2.1614 C.ar    1  UNL1        0.1384
     22 N           7.8579   -1.6947   -2.5404 N.ar    1  UNL1       -0.3456
     23 C           7.0317   -2.6122   -1.9441 C.ar    1  UNL1        0.0073
     24 C           6.0895   -1.9307   -1.1902 C.ar    1  UNL1       -0.0205
     25 C           4.9397   -2.5206   -0.4310 C.3     1  UNL1       -0.0228
     26 C           3.8053   -3.1376   -1.2124 C.3     1  UNL1       -0.0370
     27 C           3.6714   -3.0583   -2.7160 C.3     1  UNL1       -0.0497
     28 C           4.0116   -4.3683   -2.0593 C.3     1  UNL1       -0.0497
     29 N           8.0975    0.6917   -2.5844 N.ar    1  UNL1       -0.2372
     30 C           7.5527    1.8095   -2.0465 C.ar    1  UNL1        0.0335
     31 F           3.7453    2.1247    2.7228 F       1  UNL1       -0.2027
     32 H          -0.0317   -0.5407   -0.5081 H       1  UNL1        0.0230
     33 H           0.5220   -2.0052   -1.2946 H       1  UNL1        0.0230
     34 H           1.6988   -0.9628   -0.4847 H       1  UNL1        0.0230
     35 H          -0.6094   -2.3129    1.0081 H       1  UNL1        0.0279
     36 H           0.9174   -3.1324    0.7284 H       1  UNL1        0.0279
     37 H           1.1206   -2.2557    2.8939 H       1  UNL1        0.0518
     38 H           2.1255   -1.1925    1.9216 H       1  UNL1        0.0518
     39 H           1.7701    1.2991    3.5783 H       1  UNL1        0.1734
     40 H           1.1303    2.3120   -1.7661 H       1  UNL1        0.0647
     41 H          -0.0000    1.5446    0.2823 H       1  UNL1        0.0638
     42 H           5.6185    3.7942   -1.4826 H       1  UNL1        0.0394
     43 H           6.9299    3.7826   -0.3324 H       1  UNL1        0.0394
     44 H           5.1486    0.5807    0.0102 H       1  UNL1        0.0628
     45 H           8.6191   -1.8924   -3.1726 H       1  UNL1        0.1668
     46 H           7.1608   -3.6686   -2.1359 H       1  UNL1        0.0810
     47 H           5.3225   -3.2652    0.2772 H       1  UNL1        0.0316
     48 H           4.4956   -1.7310    0.1904 H       1  UNL1        0.0316
     49 H           2.8953   -3.1320   -0.6250 H       1  UNL1        0.0304
     50 H           2.6776   -2.9470   -3.1361 H       1  UNL1        0.0268
     51 H           4.4414   -2.5734   -3.3047 H       1  UNL1        0.0268
     52 H           5.0134   -4.7605   -2.1790 H       1  UNL1        0.0268
     53 H           3.2445   -5.1347   -2.0335 H       1  UNL1        0.0268
     54 H           8.0199    2.7281   -2.4007 H       1  UNL1        0.0833
@<TRIPOS>BOND
     1     1     2    1
     2     2     3    1
     3     3     4    1
     4     4     5    2
     5     4     6    2
     6     4     7    1
     7     7     8    1
     8     8     9   ar
     9     9    10   ar
    10    10    11   ar
    11    11    12   ar
    12    12    13   ar
    13     8    13   ar
    14    11    14    1
    15    10    15    1
    16    15    16    2
    17    15    17    1
    18    17    18    1
    19    18    19   ar
    20    19    20   ar
    21    20    21   ar
    22    21    22   ar
    23    22    23   ar
    24    23    24   ar
    25    20    24   ar
    26    24    25    1
    27    25    26    1
    28    26    27    1
    29    27    28    1
    30    26    28    1
    31    21    29   ar
    32    29    30   ar
    33    18    30   ar
    34     9    31    1
    35     1    32    1
    36     1    33    1
    37     1    34    1
    38     2    35    1
    39     2    36    1
    40     3    37    1
    41     3    38    1
    42     7    39    1
    43    12    40    1
    44    13    41    1
    45    17    42    1
    46    17    43    1
    47    19    44    1
    48    22    45    1
    49    23    46    1
    50    25    47    1
    51    25    48    1
    52    26    49    1
    53    27    50    1
    54    27    51    1
    55    28    52    1
    56    28    53    1
    57    30    54    1
