mol_58087463_0


 34 36  0  0  0  0  0  0  0  0999 V2000
    1.3929   -2.5758  -20.6198 C   0  0  0  0  0  0  0  0  0  0  0  0
    1.8208   -3.3525  -21.4676 O   0  0  0  0  0  0  0  0  0  0  0  0
    2.2634   -2.0974  -19.5476 C   0  0  0  0  0  0  0  0  0  0  0  0
    1.7646   -1.6290  -18.3403 C   0  0  0  0  0  0  0  0  0  0  0  0
    2.8168   -1.4191  -17.4919 N   0  0  0  0  0  0  0  0  0  0  0  0
    3.9897   -1.7020  -18.1309 C   0  0  0  0  0  0  0  0  0  0  0  0
    3.6976   -2.0419  -19.4478 C   0  0  0  0  0  0  0  0  0  0  0  0
    4.7998   -2.3019  -20.2911 C   0  0  0  0  0  0  0  0  0  0  0  0
    6.0887   -2.2873  -19.7331 C   0  0  0  0  0  0  0  0  0  0  0  0
    6.2071   -1.9755  -18.3778 C   0  0  0  0  0  0  0  0  0  0  0  0
    5.1956   -1.6528  -17.5405 N   0  0  0  0  0  0  0  0  0  0  0  0
    2.7634   -1.1314  -16.5259 H   0  0  0  0  0  0  0  0  0  0  0  0
    7.3204   -2.5971  -20.5504 C   0  0  0  0  0  0  0  0  0  0  0  0
    8.6343   -2.3030  -19.8332 C   0  0  0  0  0  0  0  0  0  0  0  0
    9.2906   -3.5691  -19.3746 C   0  0  0  0  0  0  0  0  0  0  0  0
    9.8560   -4.3867  -20.0804 O   0  0  0  0  0  0  0  0  0  0  0  0
    9.1688   -3.7842  -18.0565 O   0  0  0  0  0  0  0  0  0  0  0  0
    9.6103   -4.6500  -17.9232 H   0  0  0  0  0  0  0  0  0  0  0  0
   -2.4142   -2.4725  -20.6935 C   0  0  0  0  0  0  0  0  0  0  0  0
   -1.0908   -2.9443  -20.6545 C   0  0  0  0  0  0  0  0  0  0  0  0
   -0.0016   -2.0643  -20.7298 C   0  0  0  0  0  0  0  0  0  0  0  0
   -0.2890   -0.7195  -20.9594 C   0  0  0  0  0  0  0  0  0  0  0  0
   -1.5845   -0.2335  -20.8521 C   0  0  0  0  0  0  0  0  0  0  0  0
   -2.6356   -1.1066  -20.6199 C   0  0  0  0  0  0  0  0  0  0  0  0
    0.6497    0.1643  -21.3138 F   0  0  0  0  0  0  0  0  0  0  0  0
   -0.9096   -4.2734  -20.5901 F   0  0  0  0  0  0  0  0  0  0  0  0
   -3.4932   -3.4065  -20.7739 N   0  0  0  0  0  0  0  0  0  0  0  0
   -3.7469   -3.7395  -21.7092 H   0  0  0  0  0  0  0  0  0  0  0  0
   -4.7925   -3.3839  -19.7015 S   0  0  0  0  0  0  0  0  0  0  0  0
   -5.2996   -4.7347  -19.5725 O   0  0  0  0  0  0  0  0  0  0  0  0
   -5.6495   -2.3216  -20.1797 O   0  0  0  0  0  0  0  0  0  0  0  0
   -4.0852   -2.8437  -18.1249 C   0  0  0  0  0  0  0  0  0  0  0  0
   -5.4530   -3.0364  -15.9522 C   0  0  0  0  0  0  0  0  0  0  0  0
   -5.0771   -2.1881  -17.1582 C   0  0  0  0  0  0  0  0  0  0  0  0
 33 34  1  0  0  0
 34 32  1  0  0  0
 32 29  1  0  0  0
 29 30  2  0  0  0
 29 31  2  0  0  0
 29 27  1  0  0  0
 27 19  1  0  0  0
 19 20  2  0  0  0
 20 21  1  0  0  0
 21 22  2  0  0  0
 22 23  1  0  0  0
 23 24  2  0  0  0
 19 24  1  0  0  0
 22 25  1  0  0  0
 21  1  1  0  0  0
  1  2  2  0  0  0
  1  3  1  0  0  0
  3  4  2  0  0  0
  4  5  1  0  0  0
  5  6  1  0  0  0
  6  7  2  0  0  0
  3  7  1  0  0  0
  7  8  1  0  0  0
  8  9  2  0  0  0
  9 10  1  0  0  0
 10 11  2  0  0  0
  6 11  1  0  0  0
  9 13  1  0  0  0
 13 14  1  0  0  0
 14 15  1  0  0  0
 15 16  2  0  0  0
 15 17  1  0  0  0
 20 26  1  0  0  0
 27 28  1  0  0  0
  5 12  1  0  0  0
 17 18  1  0  0  0
M  END
> <minimizedAffinity>
-10.78198

$$$$
mol_58087463_0


 34 36  0  0  0  0  0  0  0  0999 V2000
    1.1546   -2.0665  -20.0375 C   0  0  0  0  0  0  0  0  0  0  0  0
    1.5761   -1.8286  -18.9102 O   0  0  0  0  0  0  0  0  0  0  0  0
    1.9929   -2.7666  -21.0088 C   0  0  0  0  0  0  0  0  0  0  0  0
    1.4738   -3.3360  -22.1629 C   0  0  0  0  0  0  0  0  0  0  0  0
    2.5161   -3.7605  -22.9403 N   0  0  0  0  0  0  0  0  0  0  0  0
    3.6982   -3.5165  -22.3023 C   0  0  0  0  0  0  0  0  0  0  0  0
    3.4152   -2.9795  -21.0506 C   0  0  0  0  0  0  0  0  0  0  0  0
    4.5203   -2.7244  -20.2095 C   0  0  0  0  0  0  0  0  0  0  0  0
    5.8122   -2.9422  -20.7158 C   0  0  0  0  0  0  0  0  0  0  0  0
    5.9262   -3.4390  -22.0152 C   0  0  0  0  0  0  0  0  0  0  0  0
    4.9046   -3.7643  -22.8391 N   0  0  0  0  0  0  0  0  0  0  0  0
    2.4535   -4.1651  -23.8629 H   0  0  0  0  0  0  0  0  0  0  0  0
    7.0517   -2.6544  -19.9024 C   0  0  0  0  0  0  0  0  0  0  0  0
    7.0390   -3.2723  -18.5077 C   0  0  0  0  0  0  0  0  0  0  0  0
    7.9733   -4.4408  -18.4297 C   0  0  0  0  0  0  0  0  0  0  0  0
    8.0200   -5.3816  -19.2036 O   0  0  0  0  0  0  0  0  0  0  0  0
    8.7778   -4.4079  -17.3573 O   0  0  0  0  0  0  0  0  0  0  0  0
    9.2922   -5.2400  -17.4303 H   0  0  0  0  0  0  0  0  0  0  0  0
   -2.5977   -2.3306  -20.6379 C   0  0  0  0  0  0  0  0  0  0  0  0
   -1.2603   -2.6696  -20.3694 C   0  0  0  0  0  0  0  0  0  0  0  0
   -0.2458   -1.7017  -20.3898 C   0  0  0  0  0  0  0  0  0  0  0  0
   -0.6039   -0.4178  -20.7986 C   0  0  0  0  0  0  0  0  0  0  0  0
   -1.9362   -0.0483  -20.9207 C   0  0  0  0  0  0  0  0  0  0  0  0
   -2.9363   -0.9910  -20.7413 C   0  0  0  0  0  0  0  0  0  0  0  0
    0.3022    0.5134  -21.1147 F   0  0  0  0  0  0  0  0  0  0  0  0
   -0.9843   -3.9635  -20.1393 F   0  0  0  0  0  0  0  0  0  0  0  0
   -3.5753   -3.3657  -20.7637 N   0  0  0  0  0  0  0  0  0  0  0  0
   -3.6967   -3.7755  -21.6951 H   0  0  0  0  0  0  0  0  0  0  0  0
   -4.9793   -3.4037  -19.8330 S   0  0  0  0  0  0  0  0  0  0  0  0
   -5.2997   -4.7875  -19.5489 O   0  0  0  0  0  0  0  0  0  0  0  0
   -5.9184   -2.5648  -20.5443 O   0  0  0  0  0  0  0  0  0  0  0  0
   -4.5427   -2.5500  -18.2973 C   0  0  0  0  0  0  0  0  0  0  0  0
   -5.4536   -3.0217  -15.9359 C   0  0  0  0  0  0  0  0  0  0  0  0
   -4.5031   -3.4377  -17.0489 C   0  0  0  0  0  0  0  0  0  0  0  0
 33 34  1  0  0  0
 34 32  1  0  0  0
 32 29  1  0  0  0
 29 30  2  0  0  0
 29 31  2  0  0  0
 29 27  1  0  0  0
 27 19  1  0  0  0
 19 20  2  0  0  0
 20 21  1  0  0  0
 21 22  2  0  0  0
 22 23  1  0  0  0
 23 24  2  0  0  0
 19 24  1  0  0  0
 22 25  1  0  0  0
 21  1  1  0  0  0
  1  2  2  0  0  0
  1  3  1  0  0  0
  3  4  2  0  0  0
  4  5  1  0  0  0
  5  6  1  0  0  0
  6  7  2  0  0  0
  3  7  1  0  0  0
  7  8  1  0  0  0
  8  9  2  0  0  0
  9 10  1  0  0  0
 10 11  2  0  0  0
  6 11  1  0  0  0
  9 13  1  0  0  0
 13 14  1  0  0  0
 14 15  1  0  0  0
 15 16  2  0  0  0
 15 17  1  0  0  0
 20 26  1  0  0  0
 27 28  1  0  0  0
  5 12  1  0  0  0
 17 18  1  0  0  0
M  END
> <minimizedAffinity>
-10.54960

$$$$
mol_58087463_0


 34 36  0  0  0  0  0  0  0  0999 V2000
    1.6088   -1.5513  -19.3225 C   0  0  0  0  0  0  0  0  0  0  0  0
    1.7082   -1.5744  -18.1000 O   0  0  0  0  0  0  0  0  0  0  0  0
    2.7596   -1.8712  -20.1649 C   0  0  0  0  0  0  0  0  0  0  0  0
    4.0312   -1.3826  -19.9004 C   0  0  0  0  0  0  0  0  0  0  0  0
    4.9118   -1.9887  -20.7539 N   0  0  0  0  0  0  0  0  0  0  0  0
    4.2384   -2.8297  -21.5925 C   0  0  0  0  0  0  0  0  0  0  0  0
    2.8785   -2.7190  -21.3213 C   0  0  0  0  0  0  0  0  0  0  0  0
    2.0086   -3.4684  -22.1431 C   0  0  0  0  0  0  0  0  0  0  0  0
    2.5681   -4.3276  -23.1031 C   0  0  0  0  0  0  0  0  0  0  0  0
    3.9590   -4.3599  -23.2151 C   0  0  0  0  0  0  0  0  0  0  0  0
    4.8357   -3.6162  -22.5034 N   0  0  0  0  0  0  0  0  0  0  0  0
    5.9148   -1.8767  -20.7638 H   0  0  0  0  0  0  0  0  0  0  0  0
    1.7150   -5.1988  -23.9943 C   0  0  0  0  0  0  0  0  0  0  0  0
    2.1986   -6.6416  -24.1026 C   0  0  0  0  0  0  0  0  0  0  0  0
    2.1514   -7.1184  -25.5221 C   0  0  0  0  0  0  0  0  0  0  0  0
    2.7462   -6.6311  -26.4682 O   0  0  0  0  0  0  0  0  0  0  0  0
    1.3223   -8.1558  -25.7075 O   0  0  0  0  0  0  0  0  0  0  0  0
    1.3757   -8.3232  -26.6725 H   0  0  0  0  0  0  0  0  0  0  0  0
   -1.9569   -2.0062  -20.5830 C   0  0  0  0  0  0  0  0  0  0  0  0
   -0.6822   -2.2733  -20.0545 C   0  0  0  0  0  0  0  0  0  0  0  0
    0.2869   -1.2655  -19.9463 C   0  0  0  0  0  0  0  0  0  0  0  0
   -0.0305   -0.0212  -20.4894 C   0  0  0  0  0  0  0  0  0  0  0  0
   -1.3282    0.2842  -20.8750 C   0  0  0  0  0  0  0  0  0  0  0  0
   -2.3134   -0.6894  -20.8262 C   0  0  0  0  0  0  0  0  0  0  0  0
    0.8881    0.9298  -20.6890 F   0  0  0  0  0  0  0  0  0  0  0  0
   -0.4121   -3.5405  -19.7013 F   0  0  0  0  0  0  0  0  0  0  0  0
   -2.8605   -3.0871  -20.8239 N   0  0  0  0  0  0  0  0  0  0  0  0
   -2.6879   -3.6560  -21.6587 H   0  0  0  0  0  0  0  0  0  0  0  0
   -4.4869   -3.0224  -20.3887 S   0  0  0  0  0  0  0  0  0  0  0  0
   -5.0175   -4.3702  -20.4092 O   0  0  0  0  0  0  0  0  0  0  0  0
   -5.0566   -1.9973  -21.2350 O   0  0  0  0  0  0  0  0  0  0  0  0
   -4.4897   -2.3905  -18.6921 C   0  0  0  0  0  0  0  0  0  0  0  0
   -5.0855   -2.9304  -16.2463 C   0  0  0  0  0  0  0  0  0  0  0  0
   -4.6370   -3.4569  -17.6016 C   0  0  0  0  0  0  0  0  0  0  0  0
 33 34  1  0  0  0
 34 32  1  0  0  0
 32 29  1  0  0  0
 29 30  2  0  0  0
 29 31  2  0  0  0
 29 27  1  0  0  0
 27 19  1  0  0  0
 19 20  2  0  0  0
 20 21  1  0  0  0
 21 22  2  0  0  0
 22 23  1  0  0  0
 23 24  2  0  0  0
 19 24  1  0  0  0
 22 25  1  0  0  0
 21  1  1  0  0  0
  1  2  2  0  0  0
  1  3  1  0  0  0
  3  4  2  0  0  0
  4  5  1  0  0  0
  5  6  1  0  0  0
  6  7  2  0  0  0
  3  7  1  0  0  0
  7  8  1  0  0  0
  8  9  2  0  0  0
  9 10  1  0  0  0
 10 11  2  0  0  0
  6 11  1  0  0  0
  9 13  1  0  0  0
 13 14  1  0  0  0
 14 15  1  0  0  0
 15 16  2  0  0  0
 15 17  1  0  0  0
 20 26  1  0  0  0
 27 28  1  0  0  0
  5 12  1  0  0  0
 17 18  1  0  0  0
M  END
> <minimizedAffinity>
-10.29477

$$$$
mol_58087390_1


 34 36  0  0  0  0  0  0  0  0999 V2000
    1.3906   -2.6333  -20.6626 C   0  0  0  0  0  0  0  0  0  0  0  0
    1.7616   -3.4270  -21.5240 O   0  0  0  0  0  0  0  0  0  0  0  0
    2.3268   -2.2257  -19.6129 C   0  0  0  0  0  0  0  0  0  0  0  0
    1.8859   -1.6072  -18.4487 C   0  0  0  0  0  0  0  0  0  0  0  0
    2.9505   -1.4398  -17.6086 N   0  0  0  0  0  0  0  0  0  0  0  0
    4.0854   -1.8973  -18.2117 C   0  0  0  0  0  0  0  0  0  0  0  0
    3.7575   -2.3126  -19.4983 C   0  0  0  0  0  0  0  0  0  0  0  0
    4.8319   -2.7400  -20.3109 C   0  0  0  0  0  0  0  0  0  0  0  0
    6.1124   -2.8454  -19.7494 C   0  0  0  0  0  0  0  0  0  0  0  0
    6.2605   -2.4247  -18.4246 C   0  0  0  0  0  0  0  0  0  0  0  0
    5.2921   -1.9179  -17.6224 N   0  0  0  0  0  0  0  0  0  0  0  0
    2.9270   -1.0553  -16.6753 H   0  0  0  0  0  0  0  0  0  0  0  0
    7.2809   -3.3862  -20.4690 C   0  0  0  0  0  0  0  0  0  0  0  0
    7.7732   -4.6301  -20.3478 C   0  0  0  0  0  0  0  0  0  0  0  0
    8.9497   -5.1189  -21.0807 C   0  0  0  0  0  0  0  0  0  0  0  0
    9.7058   -4.4000  -21.7127 O   0  0  0  0  0  0  0  0  0  0  0  0
    9.1347   -6.4434  -21.0035 O   0  0  0  0  0  0  0  0  0  0  0  0
    9.9473   -6.5986  -21.5291 H   0  0  0  0  0  0  0  0  0  0  0  0
   -2.4055   -2.4707  -20.6879 C   0  0  0  0  0  0  0  0  0  0  0  0
   -1.0854   -2.9461  -20.6449 C   0  0  0  0  0  0  0  0  0  0  0  0
    0.0104   -2.0810  -20.7556 C   0  0  0  0  0  0  0  0  0  0  0  0
   -0.2782   -0.7414  -21.0077 C   0  0  0  0  0  0  0  0  0  0  0  0
   -1.5707   -0.2373  -20.8751 C   0  0  0  0  0  0  0  0  0  0  0  0
   -2.6360   -1.1041  -20.6579 C   0  0  0  0  0  0  0  0  0  0  0  0
    0.6533    0.1150  -21.4395 F   0  0  0  0  0  0  0  0  0  0  0  0
   -0.9214   -4.2763  -20.5550 F   0  0  0  0  0  0  0  0  0  0  0  0
   -3.4661   -3.4225  -20.7626 N   0  0  0  0  0  0  0  0  0  0  0  0
   -3.7362   -3.7196  -21.7053 H   0  0  0  0  0  0  0  0  0  0  0  0
   -4.7800   -3.3720  -19.7137 S   0  0  0  0  0  0  0  0  0  0  0  0
   -5.2562   -4.7233  -19.5181 O   0  0  0  0  0  0  0  0  0  0  0  0
   -5.6493   -2.3577  -20.2750 O   0  0  0  0  0  0  0  0  0  0  0  0
   -4.1357   -2.7198  -18.1527 C   0  0  0  0  0  0  0  0  0  0  0  0
   -5.4827   -3.0043  -15.9866 C   0  0  0  0  0  0  0  0  0  0  0  0
   -4.4352   -3.5821  -16.9233 C   0  0  0  0  0  0  0  0  0  0  0  0
 33 34  1  0  0  0
 34 32  1  0  0  0
 32 29  1  0  0  0
 29 30  2  0  0  0
 29 31  2  0  0  0
 29 27  1  0  0  0
 27 19  1  0  0  0
 19 20  2  0  0  0
 20 21  1  0  0  0
 21 22  2  0  0  0
 22 23  1  0  0  0
 23 24  2  0  0  0
 19 24  1  0  0  0
 22 25  1  0  0  0
 21  1  1  0  0  0
  1  2  2  0  0  0
  1  3  1  0  0  0
  3  4  2  0  0  0
  4  5  1  0  0  0
  5  6  1  0  0  0
  6  7  2  0  0  0
  3  7  1  0  0  0
  7  8  1  0  0  0
  8  9  2  0  0  0
  9 10  1  0  0  0
 10 11  2  0  0  0
  6 11  1  0  0  0
  9 13  1  0  0  0
 13 14  2  0  0  0
 14 15  1  0  0  0
 15 16  2  0  0  0
 15 17  1  0  0  0
 20 26  1  0  0  0
 27 28  1  0  0  0
  5 12  1  0  0  0
 17 18  1  0  0  0
M  END
> <minimizedAffinity>
-10.86148

$$$$
mol_58087390_1


 34 36  0  0  0  0  0  0  0  0999 V2000
    1.2658   -2.0264  -19.9269 C   0  0  0  0  0  0  0  0  0  0  0  0
    1.6459   -1.8200  -18.7769 O   0  0  0  0  0  0  0  0  0  0  0  0
    2.1657   -2.6932  -20.8702 C   0  0  0  0  0  0  0  0  0  0  0  0
    1.6806   -3.3405  -22.0007 C   0  0  0  0  0  0  0  0  0  0  0  0
    2.7389   -3.7730  -22.7489 N   0  0  0  0  0  0  0  0  0  0  0  0
    3.9056   -3.4599  -22.1148 C   0  0  0  0  0  0  0  0  0  0  0  0
    3.5929   -2.8666  -20.8960 C   0  0  0  0  0  0  0  0  0  0  0  0
    4.6842   -2.5514  -20.0551 C   0  0  0  0  0  0  0  0  0  0  0  0
    5.9894   -2.7258  -20.5367 C   0  0  0  0  0  0  0  0  0  0  0  0
    6.1264   -3.2971  -21.8051 C   0  0  0  0  0  0  0  0  0  0  0  0
    5.1246   -3.7075  -22.6213 N   0  0  0  0  0  0  0  0  0  0  0  0
    2.6941   -4.2398  -23.6430 H   0  0  0  0  0  0  0  0  0  0  0  0
    7.1981   -2.3250  -19.7921 C   0  0  0  0  0  0  0  0  0  0  0  0
    8.4604   -2.6678  -20.0978 C   0  0  0  0  0  0  0  0  0  0  0  0
    9.6330   -2.2506  -19.3160 C   0  0  0  0  0  0  0  0  0  0  0  0
   10.4892   -1.4854  -19.7274 O   0  0  0  0  0  0  0  0  0  0  0  0
    9.6954   -2.7862  -18.0897 O   0  0  0  0  0  0  0  0  0  0  0  0
   10.5152   -2.4074  -17.7088 H   0  0  0  0  0  0  0  0  0  0  0  0
   -2.4689   -2.2610  -20.5863 C   0  0  0  0  0  0  0  0  0  0  0  0
   -1.1388   -2.5920  -20.2831 C   0  0  0  0  0  0  0  0  0  0  0  0
   -0.1215   -1.6295  -20.2964 C   0  0  0  0  0  0  0  0  0  0  0  0
   -0.4804   -0.3515  -20.7200 C   0  0  0  0  0  0  0  0  0  0  0  0
   -1.8161    0.0248  -20.8490 C   0  0  0  0  0  0  0  0  0  0  0  0
   -2.8216   -0.9277  -20.7259 C   0  0  0  0  0  0  0  0  0  0  0  0
    0.4316    0.5596  -21.0745 F   0  0  0  0  0  0  0  0  0  0  0  0
   -0.8752   -3.8866  -20.0401 F   0  0  0  0  0  0  0  0  0  0  0  0
   -3.4122   -3.3207  -20.7409 N   0  0  0  0  0  0  0  0  0  0  0  0
   -3.4399   -3.7650  -21.6638 H   0  0  0  0  0  0  0  0  0  0  0  0
   -4.9290   -3.2721  -20.0155 S   0  0  0  0  0  0  0  0  0  0  0  0
   -5.3332   -4.6284  -19.7187 O   0  0  0  0  0  0  0  0  0  0  0  0
   -5.7234   -2.4423  -20.8986 O   0  0  0  0  0  0  0  0  0  0  0  0
   -4.7051   -2.3505  -18.4735 C   0  0  0  0  0  0  0  0  0  0  0  0
   -5.3160   -3.0738  -16.0879 C   0  0  0  0  0  0  0  0  0  0  0  0
   -4.3540   -3.2102  -17.2561 C   0  0  0  0  0  0  0  0  0  0  0  0
 33 34  1  0  0  0
 34 32  1  0  0  0
 32 29  1  0  0  0
 29 30  2  0  0  0
 29 31  2  0  0  0
 29 27  1  0  0  0
 27 19  1  0  0  0
 19 20  2  0  0  0
 20 21  1  0  0  0
 21 22  2  0  0  0
 22 23  1  0  0  0
 23 24  2  0  0  0
 19 24  1  0  0  0
 22 25  1  0  0  0
 21  1  1  0  0  0
  1  2  2  0  0  0
  1  3  1  0  0  0
  3  4  2  0  0  0
  4  5  1  0  0  0
  5  6  1  0  0  0
  6  7  2  0  0  0
  3  7  1  0  0  0
  7  8  1  0  0  0
  8  9  2  0  0  0
  9 10  1  0  0  0
 10 11  2  0  0  0
  6 11  1  0  0  0
  9 13  1  0  0  0
 13 14  2  0  0  0
 14 15  1  0  0  0
 15 16  2  0  0  0
 15 17  1  0  0  0
 20 26  1  0  0  0
 27 28  1  0  0  0
  5 12  1  0  0  0
 17 18  1  0  0  0
M  END
> <minimizedAffinity>
-10.71641

$$$$
mol_58087390_1


 34 36  0  0  0  0  0  0  0  0999 V2000
    1.7511   -2.4825  -19.7398 C   0  0  0  0  0  0  0  0  0  0  0  0
    1.8657   -2.8711  -18.5799 O   0  0  0  0  0  0  0  0  0  0  0  0
    2.8847   -2.6194  -20.6566 C   0  0  0  0  0  0  0  0  0  0  0  0
    4.0839   -1.9535  -20.4310 C   0  0  0  0  0  0  0  0  0  0  0  0
    4.9906   -2.3470  -21.3745 N   0  0  0  0  0  0  0  0  0  0  0  0
    4.4012   -3.2243  -22.2372 C   0  0  0  0  0  0  0  0  0  0  0  0
    3.0628   -3.3528  -21.8806 C   0  0  0  0  0  0  0  0  0  0  0  0
    2.2656   -4.1609  -22.7225 C   0  0  0  0  0  0  0  0  0  0  0  0
    2.8776   -4.8746  -23.7626 C   0  0  0  0  0  0  0  0  0  0  0  0
    4.2454   -4.6628  -23.9580 C   0  0  0  0  0  0  0  0  0  0  0  0
    5.0462   -3.8312  -23.2469 N   0  0  0  0  0  0  0  0  0  0  0  0
    5.9569   -2.0614  -21.4377 H   0  0  0  0  0  0  0  0  0  0  0  0
    2.1655   -5.8329  -24.6289 C   0  0  0  0  0  0  0  0  0  0  0  0
    2.7377   -6.6944  -25.4861 C   0  0  0  0  0  0  0  0  0  0  0  0
    1.9819   -7.6240  -26.3375 C   0  0  0  0  0  0  0  0  0  0  0  0
    2.1980   -7.7879  -27.5267 O   0  0  0  0  0  0  0  0  0  0  0  0
    1.0140   -8.2932  -25.6972 O   0  0  0  0  0  0  0  0  0  0  0  0
    0.6216   -8.8619  -26.3923 H   0  0  0  0  0  0  0  0  0  0  0  0
   -1.9342   -2.3088  -20.6489 C   0  0  0  0  0  0  0  0  0  0  0  0
   -0.6667   -2.7858  -20.2793 C   0  0  0  0  0  0  0  0  0  0  0  0
    0.4379   -1.9310  -20.1757 C   0  0  0  0  0  0  0  0  0  0  0  0
    0.2351   -0.6049  -20.5522 C   0  0  0  0  0  0  0  0  0  0  0  0
   -1.0455   -0.0905  -20.7461 C   0  0  0  0  0  0  0  0  0  0  0  0
   -2.1450   -0.9417  -20.7390 C   0  0  0  0  0  0  0  0  0  0  0  0
    1.2537    0.2254  -20.7980 F   0  0  0  0  0  0  0  0  0  0  0  0
   -0.5477   -4.1104  -20.0897 F   0  0  0  0  0  0  0  0  0  0  0  0
   -2.9631   -3.2597  -20.9203 N   0  0  0  0  0  0  0  0  0  0  0  0
   -2.9728   -3.6517  -21.8670 H   0  0  0  0  0  0  0  0  0  0  0  0
   -4.5125   -3.0966  -20.2864 S   0  0  0  0  0  0  0  0  0  0  0  0
   -5.1222   -4.4070  -20.2367 O   0  0  0  0  0  0  0  0  0  0  0  0
   -5.1110   -2.0340  -21.0687 O   0  0  0  0  0  0  0  0  0  0  0  0
   -4.2896   -2.4628  -18.6054 C   0  0  0  0  0  0  0  0  0  0  0  0
   -5.1026   -2.9851  -16.2276 C   0  0  0  0  0  0  0  0  0  0  0  0
   -4.4525   -3.5074  -17.4977 C   0  0  0  0  0  0  0  0  0  0  0  0
 33 34  1  0  0  0
 34 32  1  0  0  0
 32 29  1  0  0  0
 29 30  2  0  0  0
 29 31  2  0  0  0
 29 27  1  0  0  0
 27 19  1  0  0  0
 19 20  2  0  0  0
 20 21  1  0  0  0
 21 22  2  0  0  0
 22 23  1  0  0  0
 23 24  2  0  0  0
 19 24  1  0  0  0
 22 25  1  0  0  0
 21  1  1  0  0  0
  1  2  2  0  0  0
  1  3  1  0  0  0
  3  4  2  0  0  0
  4  5  1  0  0  0
  5  6  1  0  0  0
  6  7  2  0  0  0
  3  7  1  0  0  0
  7  8  1  0  0  0
  8  9  2  0  0  0
  9 10  1  0  0  0
 10 11  2  0  0  0
  6 11  1  0  0  0
  9 13  1  0  0  0
 13 14  2  0  0  0
 14 15  1  0  0  0
 15 16  2  0  0  0
 15 17  1  0  0  0
 20 26  1  0  0  0
 27 28  1  0  0  0
  5 12  1  0  0  0
 17 18  1  0  0  0
M  END
> <minimizedAffinity>
-10.46089

$$$$
mol_58086030_2


 28 30  0  0  0  0  0  0  0  0999 V2000
   -2.2120   -2.6042  -20.2021 C   0  0  0  0  0  0  0  0  0  0  0  0
   -0.9842   -3.0997  -20.6514 C   0  0  0  0  0  0  0  0  0  0  0  0
    0.0332   -2.2520  -21.0884 C   0  0  0  0  0  0  0  0  0  0  0  0
   -0.2816   -0.9032  -21.2571 C   0  0  0  0  0  0  0  0  0  0  0  0
   -1.5243   -0.3975  -20.8739 C   0  0  0  0  0  0  0  0  0  0  0  0
   -2.4731   -1.2429  -20.2876 C   0  0  0  0  0  0  0  0  0  0  0  0
    0.6419   -0.0564  -21.7337 F   0  0  0  0  0  0  0  0  0  0  0  0
   -0.7609   -4.4206  -20.5694 F   0  0  0  0  0  0  0  0  0  0  0  0
   -3.0880   -3.5075  -19.5398 N   0  0  0  0  0  0  0  0  0  0  0  0
   -2.7801   -4.4828  -19.6078 H   0  0  0  0  0  0  0  0  0  0  0  0
   -4.7453   -3.4835  -19.6782 S   0  0  0  0  0  0  0  0  0  0  0  0
   -5.2310   -2.3355  -18.9404 O   0  0  0  0  0  0  0  0  0  0  0  0
   -5.1266   -4.8209  -19.2730 O   0  0  0  0  0  0  0  0  0  0  0  0
   -5.1964   -3.3195  -21.4149 C   0  0  0  0  0  0  0  0  0  0  0  0
   -6.9898   -1.9589  -22.6255 C   0  0  0  0  0  0  0  0  0  0  0  0
   -5.7028   -1.9380  -21.8247 C   0  0  0  0  0  0  0  0  0  0  0  0
    1.4589   -2.7381  -21.1414 C   0  0  0  0  0  0  0  0  0  0  0  0
    2.0690   -2.1564  -19.8906 C   0  0  0  0  0  0  0  0  0  0  0  0
    1.3768   -1.7345  -18.7639 C   0  0  0  0  0  0  0  0  0  0  0  0
    2.2839   -1.4205  -17.7848 N   0  0  0  0  0  0  0  0  0  0  0  0
    3.5529   -1.6262  -18.2449 C   0  0  0  0  0  0  0  0  0  0  0  0
    3.4670   -2.0215  -19.5767 C   0  0  0  0  0  0  0  0  0  0  0  0
    4.6817   -2.2504  -20.2498 C   0  0  0  0  0  0  0  0  0  0  0  0
    5.8625   -2.1330  -19.5206 C   0  0  0  0  0  0  0  0  0  0  0  0
    5.7990   -1.7593  -18.1853 C   0  0  0  0  0  0  0  0  0  0  0  0
    4.6641   -1.4729  -17.4997 N   0  0  0  0  0  0  0  0  0  0  0  0
    7.3712   -2.4762  -20.2678 Cl  0  0  0  0  0  0  0  0  0  0  0  0
    2.0740   -1.1230  -16.8431 H   0  0  0  0  0  0  0  0  0  0  0  0
 15 16  1  0  0  0
 16 14  1  0  0  0
 14 11  1  0  0  0
 11 12  2  0  0  0
 11 13  2  0  0  0
 11  9  1  0  0  0
  9  1  1  0  0  0
  1  2  2  0  0  0
  2  3  1  0  0  0
  3  4  2  0  0  0
  4  5  1  0  0  0
  5  6  2  0  0  0
  1  6  1  0  0  0
  4  7  1  0  0  0
  3 17  1  0  0  0
 17 18  1  0  0  0
 18 19  2  0  0  0
 19 20  1  0  0  0
 20 21  1  0  0  0
 21 22  2  0  0  0
 18 22  1  0  0  0
 22 23  1  0  0  0
 23 24  2  0  0  0
 24 25  1  0  0  0
 25 26  2  0  0  0
 21 26  1  0  0  0
 24 27  1  0  0  0
  2  8  1  0  0  0
  9 10  1  0  0  0
 20 28  1  0  0  0
M  END
> <minimizedAffinity>
-10.20280

$$$$
mol_58086030_2


 28 30  0  0  0  0  0  0  0  0999 V2000
   -2.0701   -2.4682  -20.4646 C   0  0  0  0  0  0  0  0  0  0  0  0
   -0.8220   -2.8886  -20.9342 C   0  0  0  0  0  0  0  0  0  0  0  0
    0.1893   -1.9796  -21.2437 C   0  0  0  0  0  0  0  0  0  0  0  0
   -0.1473   -0.6257  -21.2654 C   0  0  0  0  0  0  0  0  0  0  0  0
   -1.4089   -0.1879  -20.8607 C   0  0  0  0  0  0  0  0  0  0  0  0
   -2.3554   -1.1107  -20.4009 C   0  0  0  0  0  0  0  0  0  0  0  0
    0.7710    0.2854  -21.6168 F   0  0  0  0  0  0  0  0  0  0  0  0
   -0.5751   -4.2063  -20.9979 F   0  0  0  0  0  0  0  0  0  0  0  0
   -2.9446   -3.4559  -19.9340 N   0  0  0  0  0  0  0  0  0  0  0  0
   -2.7850   -4.3858  -20.3347 H   0  0  0  0  0  0  0  0  0  0  0  0
   -4.5846   -3.2561  -19.7425 S   0  0  0  0  0  0  0  0  0  0  0  0
   -5.1889   -4.5724  -19.7295 O   0  0  0  0  0  0  0  0  0  0  0  0
   -4.9232   -2.3125  -20.7881 O   0  0  0  0  0  0  0  0  0  0  0  0
   -4.9054   -2.4293  -18.1741 C   0  0  0  0  0  0  0  0  0  0  0  0
   -5.5947   -2.9218  -15.7626 C   0  0  0  0  0  0  0  0  0  0  0  0
   -4.7062   -3.2962  -16.9325 C   0  0  0  0  0  0  0  0  0  0  0  0
    1.6251   -2.4328  -21.3133 C   0  0  0  0  0  0  0  0  0  0  0  0
    2.1946   -1.9809  -19.9916 C   0  0  0  0  0  0  0  0  0  0  0  0
    1.4663   -1.6710  -18.8514 C   0  0  0  0  0  0  0  0  0  0  0  0
    2.3412   -1.4595  -17.8171 N   0  0  0  0  0  0  0  0  0  0  0  0
    3.6245   -1.6228  -18.2543 C   0  0  0  0  0  0  0  0  0  0  0  0
    3.5817   -1.8830  -19.6210 C   0  0  0  0  0  0  0  0  0  0  0  0
    4.8175   -2.0479  -20.2741 C   0  0  0  0  0  0  0  0  0  0  0  0
    5.9740   -2.0080  -19.4990 C   0  0  0  0  0  0  0  0  0  0  0  0
    5.8674   -1.7692  -18.1359 C   0  0  0  0  0  0  0  0  0  0  0  0
    4.7110   -1.5485  -17.4621 N   0  0  0  0  0  0  0  0  0  0  0  0
    7.5061   -2.2805  -20.2277 Cl  0  0  0  0  0  0  0  0  0  0  0  0
    2.1011   -1.2565  -16.8577 H   0  0  0  0  0  0  0  0  0  0  0  0
 15 16  1  0  0  0
 16 14  1  0  0  0
 14 11  1  0  0  0
 11 12  2  0  0  0
 11 13  2  0  0  0
 11  9  1  0  0  0
  9  1  1  0  0  0
  1  2  2  0  0  0
  2  3  1  0  0  0
  3  4  2  0  0  0
  4  5  1  0  0  0
  5  6  2  0  0  0
  1  6  1  0  0  0
  4  7  1  0  0  0
  3 17  1  0  0  0
 17 18  1  0  0  0
 18 19  2  0  0  0
 19 20  1  0  0  0
 20 21  1  0  0  0
 21 22  2  0  0  0
 18 22  1  0  0  0
 22 23  1  0  0  0
 23 24  2  0  0  0
 24 25  1  0  0  0
 25 26  2  0  0  0
 21 26  1  0  0  0
 24 27  1  0  0  0
  2  8  1  0  0  0
  9 10  1  0  0  0
 20 28  1  0  0  0
M  END
> <minimizedAffinity>
-10.08484

$$$$
mol_58086030_2


 28 30  0  0  0  0  0  0  0  0999 V2000
   -2.3815   -2.4088  -20.7696 C   0  0  0  0  0  0  0  0  0  0  0  0
   -1.1048   -2.8803  -20.4491 C   0  0  0  0  0  0  0  0  0  0  0  0
   -0.0459   -2.0109  -20.1886 C   0  0  0  0  0  0  0  0  0  0  0  0
   -0.2453   -0.6562  -20.4564 C   0  0  0  0  0  0  0  0  0  0  0  0
   -1.4965   -0.1714  -20.8392 C   0  0  0  0  0  0  0  0  0  0  0  0
   -2.5850   -1.0455  -20.9380 C   0  0  0  0  0  0  0  0  0  0  0  0
    0.7595    0.2139  -20.2824 F   0  0  0  0  0  0  0  0  0  0  0  0
   -0.9312   -4.2032  -20.3038 F   0  0  0  0  0  0  0  0  0  0  0  0
   -3.4525   -3.3441  -20.7668 N   0  0  0  0  0  0  0  0  0  0  0  0
   -3.8313   -3.5186  -21.7031 H   0  0  0  0  0  0  0  0  0  0  0  0
   -4.7259   -3.3136  -19.6973 S   0  0  0  0  0  0  0  0  0  0  0  0
   -5.2650   -4.6557  -19.6180 O   0  0  0  0  0  0  0  0  0  0  0  0
   -5.5470   -2.2301  -20.1974 O   0  0  0  0  0  0  0  0  0  0  0  0
   -4.1297   -2.8060  -18.0745 C   0  0  0  0  0  0  0  0  0  0  0  0
   -5.4152   -3.0470  -15.8786 C   0  0  0  0  0  0  0  0  0  0  0  0
   -5.1968   -2.2373  -17.1414 C   0  0  0  0  0  0  0  0  0  0  0  0
    1.1646   -2.4915  -19.4301 C   0  0  0  0  0  0  0  0  0  0  0  0
    2.1303   -2.8708  -20.5251 C   0  0  0  0  0  0  0  0  0  0  0  0
    1.7938   -3.2313  -21.8225 C   0  0  0  0  0  0  0  0  0  0  0  0
    2.9455   -3.3469  -22.5576 N   0  0  0  0  0  0  0  0  0  0  0  0
    4.0273   -3.0713  -21.7712 C   0  0  0  0  0  0  0  0  0  0  0  0
    3.5682   -2.8348  -20.4787 C   0  0  0  0  0  0  0  0  0  0  0  0
    4.5424   -2.5649  -19.4993 C   0  0  0  0  0  0  0  0  0  0  0  0
    5.8718   -2.4869  -19.9073 C   0  0  0  0  0  0  0  0  0  0  0  0
    6.1854   -2.7162  -21.2398 C   0  0  0  0  0  0  0  0  0  0  0  0
    5.2980   -3.0339  -22.2154 N   0  0  0  0  0  0  0  0  0  0  0  0
    7.0965   -2.0837  -18.7716 Cl  0  0  0  0  0  0  0  0  0  0  0  0
    3.0120   -3.5582  -23.5426 H   0  0  0  0  0  0  0  0  0  0  0  0
 15 16  1  0  0  0
 16 14  1  0  0  0
 14 11  1  0  0  0
 11 12  2  0  0  0
 11 13  2  0  0  0
 11  9  1  0  0  0
  9  1  1  0  0  0
  1  2  2  0  0  0
  2  3  1  0  0  0
  3  4  2  0  0  0
  4  5  1  0  0  0
  5  6  2  0  0  0
  1  6  1  0  0  0
  4  7  1  0  0  0
  3 17  1  0  0  0
 17 18  1  0  0  0
 18 19  2  0  0  0
 19 20  1  0  0  0
 20 21  1  0  0  0
 21 22  2  0  0  0
 18 22  1  0  0  0
 22 23  1  0  0  0
 23 24  2  0  0  0
 24 25  1  0  0  0
 25 26  2  0  0  0
 21 26  1  0  0  0
 24 27  1  0  0  0
  2  8  1  0  0  0
  9 10  1  0  0  0
 20 28  1  0  0  0
M  END
> <minimizedAffinity>
-9.92873

$$$$
mol_66646723_3


 33 36  0  0  0  0  0  0  0  0999 V2000
    1.3350   -2.5510  -20.5807 C   0  0  0  0  0  0  0  0  0  0  0  0
    1.6449   -3.3875  -21.4308 O   0  0  0  0  0  0  0  0  0  0  0  0
    2.2868   -2.1990  -19.5325 C   0  0  0  0  0  0  0  0  0  0  0  0
    1.8476   -1.6103  -18.3515 C   0  0  0  0  0  0  0  0  0  0  0  0
    2.9138   -1.4377  -17.5203 N   0  0  0  0  0  0  0  0  0  0  0  0
    4.0510   -1.8518  -18.1465 C   0  0  0  0  0  0  0  0  0  0  0  0
    3.7211   -2.2631  -19.4384 C   0  0  0  0  0  0  0  0  0  0  0  0
    4.8045   -2.6165  -20.2746 C   0  0  0  0  0  0  0  0  0  0  0  0
    6.0948   -2.6104  -19.7238 C   0  0  0  0  0  0  0  0  0  0  0  0
    6.2507   -2.2294  -18.3931 C   0  0  0  0  0  0  0  0  0  0  0  0
    5.2628   -1.8206  -17.5669 N   0  0  0  0  0  0  0  0  0  0  0  0
    2.8957   -1.0535  -16.5868 H   0  0  0  0  0  0  0  0  0  0  0  0
    7.2515   -2.9637  -20.5114 C   0  0  0  0  0  0  0  0  0  0  0  0
    7.2450   -3.8690  -21.5513 C   0  0  0  0  0  0  0  0  0  0  0  0
    8.5397   -3.9657  -21.9752 N   0  0  0  0  0  0  0  0  0  0  0  0
    9.3881   -3.1806  -21.2851 N   0  0  0  0  0  0  0  0  0  0  0  0
    8.6025   -2.5788  -20.3874 C   0  0  0  0  0  0  0  0  0  0  0  0
    9.0495   -4.8131  -23.0261 C   0  0  0  0  0  0  0  0  0  0  0  0
   -2.4168   -2.3886  -20.7277 C   0  0  0  0  0  0  0  0  0  0  0  0
   -1.1003   -2.8352  -20.7530 C   0  0  0  0  0  0  0  0  0  0  0  0
   -0.0168   -1.9461  -20.6967 C   0  0  0  0  0  0  0  0  0  0  0  0
   -0.2920   -0.5878  -20.7939 C   0  0  0  0  0  0  0  0  0  0  0  0
   -1.6138   -0.1252  -20.8017 C   0  0  0  0  0  0  0  0  0  0  0  0
   -2.6844   -1.0251  -20.7307 C   0  0  0  0  0  0  0  0  0  0  0  0
    0.6851    0.3165  -20.9289 F   0  0  0  0  0  0  0  0  0  0  0  0
   -3.4352   -3.3811  -20.7364 N   0  0  0  0  0  0  0  0  0  0  0  0
   -3.8812   -3.4360  -21.6579 H   0  0  0  0  0  0  0  0  0  0  0  0
   -4.7045   -3.3546  -19.6380 S   0  0  0  0  0  0  0  0  0  0  0  0
   -5.2150   -4.7079  -19.5697 O   0  0  0  0  0  0  0  0  0  0  0  0
   -5.5627   -2.2909  -20.1211 O   0  0  0  0  0  0  0  0  0  0  0  0
   -4.1125   -2.8529  -18.0139 C   0  0  0  0  0  0  0  0  0  0  0  0
   -5.5578   -3.0301  -15.9083 C   0  0  0  0  0  0  0  0  0  0  0  0
   -5.1199   -2.1829  -17.0844 C   0  0  0  0  0  0  0  0  0  0  0  0
 32 33  1  0  0  0
 33 31  1  0  0  0
 31 28  1  0  0  0
 28 29  2  0  0  0
 28 30  2  0  0  0
 28 26  1  0  0  0
 26 19  1  0  0  0
 19 20  2  0  0  0
 20 21  1  0  0  0
 21 22  2  0  0  0
 22 23  1  0  0  0
 23 24  2  0  0  0
 19 24  1  0  0  0
 22 25  1  0  0  0
 21  1  1  0  0  0
  1  2  2  0  0  0
  1  3  1  0  0  0
  3  4  2  0  0  0
  4  5  1  0  0  0
  5  6  1  0  0  0
  6  7  2  0  0  0
  3  7  1  0  0  0
  7  8  1  0  0  0
  8  9  2  0  0  0
  9 10  1  0  0  0
 10 11  2  0  0  0
  6 11  1  0  0  0
  9 13  1  0  0  0
 13 14  2  0  0  0
 14 15  1  0  0  0
 15 16  1  0  0  0
 16 17  2  0  0  0
 13 17  1  0  0  0
 15 18  1  0  0  0
 26 27  1  0  0  0
  5 12  1  0  0  0
M  END
> <minimizedAffinity>
-10.79492

$$$$
mol_66646723_3


 33 36  0  0  0  0  0  0  0  0999 V2000
    1.1498   -2.2920  -20.3375 C   0  0  0  0  0  0  0  0  0  0  0  0
    1.6463   -2.1500  -19.2187 O   0  0  0  0  0  0  0  0  0  0  0  0
    1.9059   -2.9737  -21.3825 C   0  0  0  0  0  0  0  0  0  0  0  0
    1.2451   -3.6370  -22.4109 C   0  0  0  0  0  0  0  0  0  0  0  0
    2.1683   -4.1341  -23.2816 N   0  0  0  0  0  0  0  0  0  0  0  0
    3.4215   -3.8575  -22.8233 C   0  0  0  0  0  0  0  0  0  0  0  0
    3.3103   -3.2016  -21.5968 C   0  0  0  0  0  0  0  0  0  0  0  0
    4.5226   -2.9420  -20.9178 C   0  0  0  0  0  0  0  0  0  0  0  0
    5.7247   -3.2788  -21.5580 C   0  0  0  0  0  0  0  0  0  0  0  0
    5.6668   -3.8776  -22.8143 C   0  0  0  0  0  0  0  0  0  0  0  0
    4.5393   -4.2078  -23.4816 N   0  0  0  0  0  0  0  0  0  0  0  0
    1.9823   -4.6430  -24.1334 H   0  0  0  0  0  0  0  0  0  0  0  0
    7.0034   -3.0407  -20.9325 C   0  0  0  0  0  0  0  0  0  0  0  0
    8.1688   -3.7037  -21.2539 C   0  0  0  0  0  0  0  0  0  0  0  0
    9.1184   -3.2375  -20.3902 N   0  0  0  0  0  0  0  0  0  0  0  0
    8.6514   -2.3118  -19.5313 N   0  0  0  0  0  0  0  0  0  0  0  0
    7.3604   -2.2011  -19.8572 C   0  0  0  0  0  0  0  0  0  0  0  0
   10.4983   -3.6517  -20.3089 C   0  0  0  0  0  0  0  0  0  0  0  0
   -2.5948   -2.2927  -20.6572 C   0  0  0  0  0  0  0  0  0  0  0  0
   -1.2618   -2.6845  -20.6059 C   0  0  0  0  0  0  0  0  0  0  0  0
   -0.2185   -1.7492  -20.5378 C   0  0  0  0  0  0  0  0  0  0  0  0
   -0.5431   -0.4084  -20.7025 C   0  0  0  0  0  0  0  0  0  0  0  0
   -1.8807   -0.0023  -20.7878 C   0  0  0  0  0  0  0  0  0  0  0  0
   -2.9165   -0.9428  -20.7278 C   0  0  0  0  0  0  0  0  0  0  0  0
    0.4021    0.5301  -20.8307 F   0  0  0  0  0  0  0  0  0  0  0  0
   -3.5712   -3.3267  -20.6707 N   0  0  0  0  0  0  0  0  0  0  0  0
   -4.0432   -3.3689  -21.5798 H   0  0  0  0  0  0  0  0  0  0  0  0
   -4.8054   -3.3915  -19.5346 S   0  0  0  0  0  0  0  0  0  0  0  0
   -5.2691   -4.7630  -19.5118 O   0  0  0  0  0  0  0  0  0  0  0  0
   -5.7126   -2.3373  -19.9434 O   0  0  0  0  0  0  0  0  0  0  0  0
   -4.1791   -2.9417  -17.9081 C   0  0  0  0  0  0  0  0  0  0  0  0
   -5.6543   -2.9768  -15.8161 C   0  0  0  0  0  0  0  0  0  0  0  0
   -5.1248   -2.1765  -16.9874 C   0  0  0  0  0  0  0  0  0  0  0  0
 32 33  1  0  0  0
 33 31  1  0  0  0
 31 28  1  0  0  0
 28 29  2  0  0  0
 28 30  2  0  0  0
 28 26  1  0  0  0
 26 19  1  0  0  0
 19 20  2  0  0  0
 20 21  1  0  0  0
 21 22  2  0  0  0
 22 23  1  0  0  0
 23 24  2  0  0  0
 19 24  1  0  0  0
 22 25  1  0  0  0
 21  1  1  0  0  0
  1  2  2  0  0  0
  1  3  1  0  0  0
  3  4  2  0  0  0
  4  5  1  0  0  0
  5  6  1  0  0  0
  6  7  2  0  0  0
  3  7  1  0  0  0
  7  8  1  0  0  0
  8  9  2  0  0  0
  9 10  1  0  0  0
 10 11  2  0  0  0
  6 11  1  0  0  0
  9 13  1  0  0  0
 13 14  2  0  0  0
 14 15  1  0  0  0
 15 16  1  0  0  0
 16 17  2  0  0  0
 13 17  1  0  0  0
 15 18  1  0  0  0
 26 27  1  0  0  0
  5 12  1  0  0  0
M  END
> <minimizedAffinity>
-10.20568

$$$$
mol_66646723_3


 33 36  0  0  0  0  0  0  0  0999 V2000
    5.6737   -2.2494  -20.6559 C   0  0  0  0  0  0  0  0  0  0  0  0
    6.0134   -1.1317  -21.0480 O   0  0  0  0  0  0  0  0  0  0  0  0
    6.3645   -3.4322  -21.1581 C   0  0  0  0  0  0  0  0  0  0  0  0
    7.6458   -3.7409  -20.7138 C   0  0  0  0  0  0  0  0  0  0  0  0
    8.0403   -4.9148  -21.2828 N   0  0  0  0  0  0  0  0  0  0  0  0
    7.0697   -5.3589  -22.1299 C   0  0  0  0  0  0  0  0  0  0  0  0
    6.0341   -4.4241  -22.1466 C   0  0  0  0  0  0  0  0  0  0  0  0
    4.9898   -4.6687  -23.0673 C   0  0  0  0  0  0  0  0  0  0  0  0
    5.0317   -5.8547  -23.8155 C   0  0  0  0  0  0  0  0  0  0  0  0
    6.1106   -6.7177  -23.6385 C   0  0  0  0  0  0  0  0  0  0  0  0
    7.1669   -6.5059  -22.8231 N   0  0  0  0  0  0  0  0  0  0  0  0
    8.9143   -5.3964  -21.1296 H   0  0  0  0  0  0  0  0  0  0  0  0
    4.0005   -6.1786  -24.7719 C   0  0  0  0  0  0  0  0  0  0  0  0
    3.2557   -7.3388  -24.7590 C   0  0  0  0  0  0  0  0  0  0  0  0
    2.4527   -7.2838  -25.8622 N   0  0  0  0  0  0  0  0  0  0  0  0
    2.6203   -6.1637  -26.5900 N   0  0  0  0  0  0  0  0  0  0  0  0
    3.5709   -5.4967  -25.9291 C   0  0  0  0  0  0  0  0  0  0  0  0
    1.5105   -8.2842  -26.3026 C   0  0  0  0  0  0  0  0  0  0  0  0
    2.2352   -1.7114  -19.2378 C   0  0  0  0  0  0  0  0  0  0  0  0
    3.3859   -1.6215  -20.0129 C   0  0  0  0  0  0  0  0  0  0  0  0
    4.5621   -2.3059  -19.6720 C   0  0  0  0  0  0  0  0  0  0  0  0
    4.6040   -2.9397  -18.4365 C   0  0  0  0  0  0  0  0  0  0  0  0
    3.4608   -3.0105  -17.6305 C   0  0  0  0  0  0  0  0  0  0  0  0
    2.2580   -2.4266  -18.0466 C   0  0  0  0  0  0  0  0  0  0  0  0
    5.7386   -3.4608  -17.9551 F   0  0  0  0  0  0  0  0  0  0  0  0
    1.0856   -1.0178  -19.7066 N   0  0  0  0  0  0  0  0  0  0  0  0
    0.5295   -0.6637  -18.9215 H   0  0  0  0  0  0  0  0  0  0  0  0
   -0.0248   -1.7424  -20.7363 S   0  0  0  0  0  0  0  0  0  0  0  0
   -0.0088   -0.9725  -21.9626 O   0  0  0  0  0  0  0  0  0  0  0  0
   -1.2405   -1.8075  -19.9494 O   0  0  0  0  0  0  0  0  0  0  0  0
    0.4643   -3.4391  -21.0855 C   0  0  0  0  0  0  0  0  0  0  0  0
    0.7473   -4.5237  -23.3871 C   0  0  0  0  0  0  0  0  0  0  0  0
    1.3602   -3.6675  -22.2990 C   0  0  0  0  0  0  0  0  0  0  0  0
 32 33  1  0  0  0
 33 31  1  0  0  0
 31 28  1  0  0  0
 28 29  2  0  0  0
 28 30  2  0  0  0
 28 26  1  0  0  0
 26 19  1  0  0  0
 19 20  2  0  0  0
 20 21  1  0  0  0
 21 22  2  0  0  0
 22 23  1  0  0  0
 23 24  2  0  0  0
 19 24  1  0  0  0
 22 25  1  0  0  0
 21  1  1  0  0  0
  1  2  2  0  0  0
  1  3  1  0  0  0
  3  4  2  0  0  0
  4  5  1  0  0  0
  5  6  1  0  0  0
  6  7  2  0  0  0
  3  7  1  0  0  0
  7  8  1  0  0  0
  8  9  2  0  0  0
  9 10  1  0  0  0
 10 11  2  0  0  0
  6 11  1  0  0  0
  9 13  1  0  0  0
 13 14  2  0  0  0
 14 15  1  0  0  0
 15 16  1  0  0  0
 16 17  2  0  0  0
 13 17  1  0  0  0
 15 18  1  0  0  0
 26 27  1  0  0  0
  5 12  1  0  0  0
M  END
> <minimizedAffinity>
-9.88363

$$$$
mol_53262272_4


 34 37  0  0  0  0  0  0  0  0999 V2000
    1.4423   -2.5203  -20.6417 C   0  0  0  0  0  0  0  0  0  0  0  0
    1.8553   -3.2636  -21.5284 O   0  0  0  0  0  0  0  0  0  0  0  0
    2.3544   -2.0994  -19.5772 C   0  0  0  0  0  0  0  0  0  0  0  0
    1.8796   -1.5647  -18.3852 C   0  0  0  0  0  0  0  0  0  0  0  0
    2.9345   -1.3781  -17.5375 N   0  0  0  0  0  0  0  0  0  0  0  0
    4.0916   -1.7490  -18.1572 C   0  0  0  0  0  0  0  0  0  0  0  0
    3.7889   -2.1085  -19.4695 C   0  0  0  0  0  0  0  0  0  0  0  0
    4.8828   -2.4395  -20.2993 C   0  0  0  0  0  0  0  0  0  0  0  0
    6.1539   -2.5103  -19.7140 C   0  0  0  0  0  0  0  0  0  0  0  0
    6.2888   -2.1646  -18.3719 C   0  0  0  0  0  0  0  0  0  0  0  0
    5.2930   -1.7489  -17.5533 N   0  0  0  0  0  0  0  0  0  0  0  0
    2.8924   -1.0443  -16.5857 H   0  0  0  0  0  0  0  0  0  0  0  0
    7.3062   -2.9790  -20.4639 C   0  0  0  0  0  0  0  0  0  0  0  0
    7.1964   -3.9040  -21.4283 N   0  0  0  0  0  0  0  0  0  0  0  0
    8.4385   -4.0047  -21.9358 N   0  0  0  0  0  0  0  0  0  0  0  0
    9.3579   -3.2422  -21.2810 C   0  0  0  0  0  0  0  0  0  0  0  0
    8.6548   -2.5549  -20.3211 C   0  0  0  0  0  0  0  0  0  0  0  0
    8.6683   -4.8324  -23.0948 C   0  0  0  0  0  0  0  0  0  0  0  0
   -2.3671   -2.4659  -20.7173 C   0  0  0  0  0  0  0  0  0  0  0  0
   -1.0318   -2.9027  -20.6507 C   0  0  0  0  0  0  0  0  0  0  0  0
    0.0448   -2.0046  -20.7342 C   0  0  0  0  0  0  0  0  0  0  0  0
   -0.2756   -0.6674  -20.9655 C   0  0  0  0  0  0  0  0  0  0  0  0
   -1.5855   -0.2055  -20.8762 C   0  0  0  0  0  0  0  0  0  0  0  0
   -2.6289   -1.1034  -20.6962 C   0  0  0  0  0  0  0  0  0  0  0  0
    0.6377    0.2329  -21.3403 F   0  0  0  0  0  0  0  0  0  0  0  0
   -0.8295   -4.2287  -20.5677 F   0  0  0  0  0  0  0  0  0  0  0  0
   -3.4118   -3.4438  -20.7585 N   0  0  0  0  0  0  0  0  0  0  0  0
   -3.6490   -3.8117  -21.6853 H   0  0  0  0  0  0  0  0  0  0  0  0
   -4.7438   -3.3752  -19.7278 S   0  0  0  0  0  0  0  0  0  0  0  0
   -5.2521   -4.7163  -19.5251 O   0  0  0  0  0  0  0  0  0  0  0  0
   -5.5951   -2.3467  -20.2829 O   0  0  0  0  0  0  0  0  0  0  0  0
   -4.0658   -2.7346  -18.1823 C   0  0  0  0  0  0  0  0  0  0  0  0
   -5.3725   -3.0496  -16.0051 C   0  0  0  0  0  0  0  0  0  0  0  0
   -5.0999   -2.1645  -17.2119 C   0  0  0  0  0  0  0  0  0  0  0  0
 33 34  1  0  0  0
 34 32  1  0  0  0
 32 29  1  0  0  0
 29 30  2  0  0  0
 29 31  2  0  0  0
 29 27  1  0  0  0
 27 19  1  0  0  0
 19 20  2  0  0  0
 20 21  1  0  0  0
 21 22  2  0  0  0
 22 23  1  0  0  0
 23 24  2  0  0  0
 19 24  1  0  0  0
 22 25  1  0  0  0
 21  1  1  0  0  0
  1  2  2  0  0  0
  1  3  1  0  0  0
  3  4  2  0  0  0
  4  5  1  0  0  0
  5  6  1  0  0  0
  6  7  2  0  0  0
  3  7  1  0  0  0
  7  8  1  0  0  0
  8  9  2  0  0  0
  9 10  1  0  0  0
 10 11  2  0  0  0
  6 11  1  0  0  0
  9 13  1  0  0  0
 13 14  2  0  0  0
 14 15  1  0  0  0
 15 16  1  0  0  0
 16 17  2  0  0  0
 13 17  1  0  0  0
 15 18  1  0  0  0
 20 26  1  0  0  0
 27 28  1  0  0  0
  5 12  1  0  0  0
M  END
> <minimizedAffinity>
-11.17635

$$$$
mol_53262272_4


 34 37  0  0  0  0  0  0  0  0999 V2000
    1.5906   -2.4825  -20.6469 C   0  0  0  0  0  0  0  0  0  0  0  0
    1.9912   -3.2153  -21.5479 O   0  0  0  0  0  0  0  0  0  0  0  0
    2.5183   -2.0714  -19.5920 C   0  0  0  0  0  0  0  0  0  0  0  0
    2.0608   -1.5513  -18.3868 C   0  0  0  0  0  0  0  0  0  0  0  0
    3.1285   -1.3718  -17.5536 N   0  0  0  0  0  0  0  0  0  0  0  0
    4.2766   -1.7329  -18.1955 C   0  0  0  0  0  0  0  0  0  0  0  0
    3.9543   -2.0782  -19.5068 C   0  0  0  0  0  0  0  0  0  0  0  0
    5.0358   -2.3972  -20.3573 C   0  0  0  0  0  0  0  0  0  0  0  0
    6.3161   -2.4715  -19.7927 C   0  0  0  0  0  0  0  0  0  0  0  0
    6.4711   -2.1406  -18.4491 C   0  0  0  0  0  0  0  0  0  0  0  0
    5.4872   -1.7366  -17.6104 N   0  0  0  0  0  0  0  0  0  0  0  0
    3.1005   -1.0489  -16.5975 H   0  0  0  0  0  0  0  0  0  0  0  0
    7.4576   -2.9289  -20.5657 C   0  0  0  0  0  0  0  0  0  0  0  0
    8.6861   -2.4237  -20.3833 N   0  0  0  0  0  0  0  0  0  0  0  0
    9.4691   -3.1487  -21.2027 N   0  0  0  0  0  0  0  0  0  0  0  0
    8.7798   -4.0431  -21.9646 C   0  0  0  0  0  0  0  0  0  0  0  0
    7.4678   -3.9330  -21.5711 C   0  0  0  0  0  0  0  0  0  0  0  0
   10.8989   -2.9578  -21.1732 C   0  0  0  0  0  0  0  0  0  0  0  0
   -2.2197   -2.4328  -20.6479 C   0  0  0  0  0  0  0  0  0  0  0  0
   -0.8827   -2.8679  -20.6073 C   0  0  0  0  0  0  0  0  0  0  0  0
    0.1909   -1.9685  -20.7122 C   0  0  0  0  0  0  0  0  0  0  0  0
   -0.1356   -0.6319  -20.9378 C   0  0  0  0  0  0  0  0  0  0  0  0
   -1.4440   -0.1716  -20.8231 C   0  0  0  0  0  0  0  0  0  0  0  0
   -2.4827   -1.0706  -20.6223 C   0  0  0  0  0  0  0  0  0  0  0  0
    0.7690    0.2694  -21.3308 F   0  0  0  0  0  0  0  0  0  0  0  0
   -0.6772   -4.1937  -20.5277 F   0  0  0  0  0  0  0  0  0  0  0  0
   -3.2638   -3.4120  -20.6682 N   0  0  0  0  0  0  0  0  0  0  0  0
   -3.4094   -3.8978  -21.5589 H   0  0  0  0  0  0  0  0  0  0  0  0
   -4.6925   -3.2159  -19.7956 S   0  0  0  0  0  0  0  0  0  0  0  0
   -4.4072   -2.4723  -18.5858 O   0  0  0  0  0  0  0  0  0  0  0  0
   -5.2714   -4.5389  -19.7214 O   0  0  0  0  0  0  0  0  0  0  0  0
   -5.7392   -2.2325  -20.8893 C   0  0  0  0  0  0  0  0  0  0  0  0
   -6.4098   -1.7743  -23.3156 C   0  0  0  0  0  0  0  0  0  0  0  0
   -5.8926   -2.7871  -22.3052 C   0  0  0  0  0  0  0  0  0  0  0  0
 33 34  1  0  0  0
 34 32  1  0  0  0
 32 29  1  0  0  0
 29 30  2  0  0  0
 29 31  2  0  0  0
 29 27  1  0  0  0
 27 19  1  0  0  0
 19 20  2  0  0  0
 20 21  1  0  0  0
 21 22  2  0  0  0
 22 23  1  0  0  0
 23 24  2  0  0  0
 19 24  1  0  0  0
 22 25  1  0  0  0
 21  1  1  0  0  0
  1  2  2  0  0  0
  1  3  1  0  0  0
  3  4  2  0  0  0
  4  5  1  0  0  0
  5  6  1  0  0  0
  6  7  2  0  0  0
  3  7  1  0  0  0
  7  8  1  0  0  0
  8  9  2  0  0  0
  9 10  1  0  0  0
 10 11  2  0  0  0
  6 11  1  0  0  0
  9 13  1  0  0  0
 13 14  2  0  0  0
 14 15  1  0  0  0
 15 16  1  0  0  0
 16 17  2  0  0  0
 13 17  1  0  0  0
 15 18  1  0  0  0
 20 26  1  0  0  0
 27 28  1  0  0  0
  5 12  1  0  0  0
M  END
> <minimizedAffinity>
-10.71025

$$$$
mol_53262272_4


 34 37  0  0  0  0  0  0  0  0999 V2000
    1.3198   -2.2625  -20.2501 C   0  0  0  0  0  0  0  0  0  0  0  0
    1.8051   -2.1224  -19.1301 O   0  0  0  0  0  0  0  0  0  0  0  0
    2.0923   -2.9522  -21.2844 C   0  0  0  0  0  0  0  0  0  0  0  0
    1.4786   -3.4902  -22.4096 C   0  0  0  0  0  0  0  0  0  0  0  0
    2.4450   -3.9593  -23.2537 N   0  0  0  0  0  0  0  0  0  0  0  0
    3.6742   -3.7690  -22.6941 C   0  0  0  0  0  0  0  0  0  0  0  0
    3.4961   -3.2370  -21.4182 C   0  0  0  0  0  0  0  0  0  0  0  0
    4.6634   -3.0536  -20.6445 C   0  0  0  0  0  0  0  0  0  0  0  0
    5.9014   -3.2900  -21.2566 C   0  0  0  0  0  0  0  0  0  0  0  0
    5.9167   -3.7782  -22.5606 C   0  0  0  0  0  0  0  0  0  0  0  0
    4.8293   -4.0626  -23.3166 N   0  0  0  0  0  0  0  0  0  0  0  0
    2.3035   -4.3648  -24.1674 H   0  0  0  0  0  0  0  0  0  0  0  0
    7.1498   -2.9912  -20.5770 C   0  0  0  0  0  0  0  0  0  0  0  0
    8.3387   -3.3305  -21.0959 N   0  0  0  0  0  0  0  0  0  0  0  0
    9.2363   -2.8160  -20.2357 N   0  0  0  0  0  0  0  0  0  0  0  0
    8.6707   -2.2319  -19.1428 C   0  0  0  0  0  0  0  0  0  0  0  0
    7.3130   -2.3207  -19.3348 C   0  0  0  0  0  0  0  0  0  0  0  0
   10.6427   -2.8842  -20.5500 C   0  0  0  0  0  0  0  0  0  0  0  0
   -2.4690   -2.3382  -20.6498 C   0  0  0  0  0  0  0  0  0  0  0  0
   -1.1323   -2.7267  -20.4486 C   0  0  0  0  0  0  0  0  0  0  0  0
   -0.0789   -1.7985  -20.4864 C   0  0  0  0  0  0  0  0  0  0  0  0
   -0.4167   -0.4854  -20.8118 C   0  0  0  0  0  0  0  0  0  0  0  0
   -1.7422   -0.0634  -20.8571 C   0  0  0  0  0  0  0  0  0  0  0  0
   -2.7709   -0.9857  -20.7205 C   0  0  0  0  0  0  0  0  0  0  0  0
    0.4990    0.4255  -21.1535 F   0  0  0  0  0  0  0  0  0  0  0  0
   -0.8996   -4.0397  -20.2813 F   0  0  0  0  0  0  0  0  0  0  0  0
   -3.4776   -3.3510  -20.7293 N   0  0  0  0  0  0  0  0  0  0  0  0
   -3.6909   -3.7025  -21.6681 H   0  0  0  0  0  0  0  0  0  0  0  0
   -4.8228   -3.3568  -19.7137 S   0  0  0  0  0  0  0  0  0  0  0  0
   -5.2536   -4.7246  -19.5103 O   0  0  0  0  0  0  0  0  0  0  0  0
   -5.7269   -2.3824  -20.2831 O   0  0  0  0  0  0  0  0  0  0  0  0
   -4.2013   -2.6710  -18.1639 C   0  0  0  0  0  0  0  0  0  0  0  0
   -5.4990   -3.0519  -15.9920 C   0  0  0  0  0  0  0  0  0  0  0  0
   -4.4168   -3.5545  -16.9355 C   0  0  0  0  0  0  0  0  0  0  0  0
 33 34  1  0  0  0
 34 32  1  0  0  0
 32 29  1  0  0  0
 29 30  2  0  0  0
 29 31  2  0  0  0
 29 27  1  0  0  0
 27 19  1  0  0  0
 19 20  2  0  0  0
 20 21  1  0  0  0
 21 22  2  0  0  0
 22 23  1  0  0  0
 23 24  2  0  0  0
 19 24  1  0  0  0
 22 25  1  0  0  0
 21  1  1  0  0  0
  1  2  2  0  0  0
  1  3  1  0  0  0
  3  4  2  0  0  0
  4  5  1  0  0  0
  5  6  1  0  0  0
  6  7  2  0  0  0
  3  7  1  0  0  0
  7  8  1  0  0  0
  8  9  2  0  0  0
  9 10  1  0  0  0
 10 11  2  0  0  0
  6 11  1  0  0  0
  9 13  1  0  0  0
 13 14  2  0  0  0
 14 15  1  0  0  0
 15 16  1  0  0  0
 16 17  2  0  0  0
 13 17  1  0  0  0
 15 18  1  0  0  0
 20 26  1  0  0  0
 27 28  1  0  0  0
  5 12  1  0  0  0
M  END
> <minimizedAffinity>
-10.54908

$$$$
mol_66647044_5


 34 37  0  0  0  0  0  0  0  0999 V2000
    1.4001   -2.5302  -20.6916 C   0  0  0  0  0  0  0  0  0  0  0  0
    1.7744   -3.2811  -21.5891 O   0  0  0  0  0  0  0  0  0  0  0  0
    2.3406   -2.1492  -19.6360 C   0  0  0  0  0  0  0  0  0  0  0  0
    1.9024   -1.5558  -18.4580 C   0  0  0  0  0  0  0  0  0  0  0  0
    2.9698   -1.4000  -17.6197 N   0  0  0  0  0  0  0  0  0  0  0  0
    4.1052   -1.8368  -18.2371 C   0  0  0  0  0  0  0  0  0  0  0  0
    3.7726   -2.2397  -19.5282 C   0  0  0  0  0  0  0  0  0  0  0  0
    4.8451   -2.6558  -20.3478 C   0  0  0  0  0  0  0  0  0  0  0  0
    6.1277   -2.7364  -19.7876 C   0  0  0  0  0  0  0  0  0  0  0  0
    6.2907   -2.3159  -18.4684 C   0  0  0  0  0  0  0  0  0  0  0  0
    5.3164   -1.8469  -17.6536 N   0  0  0  0  0  0  0  0  0  0  0  0
    2.9491   -1.0297  -16.6807 H   0  0  0  0  0  0  0  0  0  0  0  0
    7.2511   -3.2315  -20.5781 C   0  0  0  0  0  0  0  0  0  0  0  0
    7.2356   -4.0289  -21.7090 C   0  0  0  0  0  0  0  0  0  0  0  0
    8.5799   -4.1839  -22.0797 C   0  0  0  0  0  0  0  0  0  0  0  0
    9.4075   -3.5608  -21.2427 N   0  0  0  0  0  0  0  0  0  0  0  0
    8.5882   -3.0017  -20.3274 N   0  0  0  0  0  0  0  0  0  0  0  0
    9.2008   -2.2901  -19.2286 C   0  0  0  0  0  0  0  0  0  0  0  0
   -2.4001   -2.4043  -20.6916 C   0  0  0  0  0  0  0  0  0  0  0  0
   -1.0755   -2.8703  -20.6748 C   0  0  0  0  0  0  0  0  0  0  0  0
    0.0135   -1.9903  -20.7486 C   0  0  0  0  0  0  0  0  0  0  0  0
   -0.2844   -0.6417  -20.9324 C   0  0  0  0  0  0  0  0  0  0  0  0
   -1.5793   -0.1565  -20.7732 C   0  0  0  0  0  0  0  0  0  0  0  0
   -2.6351   -1.0416  -20.5907 C   0  0  0  0  0  0  0  0  0  0  0  0
    0.6390    0.2446  -21.3191 F   0  0  0  0  0  0  0  0  0  0  0  0
   -0.8983   -4.2017  -20.6460 F   0  0  0  0  0  0  0  0  0  0  0  0
   -3.4590   -3.3582  -20.7883 N   0  0  0  0  0  0  0  0  0  0  0  0
   -3.7057   -3.6670  -21.7336 H   0  0  0  0  0  0  0  0  0  0  0  0
   -4.7800   -3.3404  -19.7465 S   0  0  0  0  0  0  0  0  0  0  0  0
   -5.2771   -4.6895  -19.6084 O   0  0  0  0  0  0  0  0  0  0  0  0
   -5.6355   -2.2896  -20.2634 O   0  0  0  0  0  0  0  0  0  0  0  0
   -4.1242   -2.7623  -18.1633 C   0  0  0  0  0  0  0  0  0  0  0  0
   -5.3857   -3.0319  -15.9452 C   0  0  0  0  0  0  0  0  0  0  0  0
   -5.1698   -2.1988  -17.1978 C   0  0  0  0  0  0  0  0  0  0  0  0
 33 34  1  0  0  0
 34 32  1  0  0  0
 32 29  1  0  0  0
 29 30  2  0  0  0
 29 31  2  0  0  0
 29 27  1  0  0  0
 27 19  1  0  0  0
 19 20  2  0  0  0
 20 21  1  0  0  0
 21 22  2  0  0  0
 22 23  1  0  0  0
 23 24  2  0  0  0
 19 24  1  0  0  0
 22 25  1  0  0  0
 21  1  1  0  0  0
  1  2  2  0  0  0
  1  3  1  0  0  0
  3  4  2  0  0  0
  4  5  1  0  0  0
  5  6  1  0  0  0
  6  7  2  0  0  0
  3  7  1  0  0  0
  7  8  1  0  0  0
  8  9  2  0  0  0
  9 10  1  0  0  0
 10 11  2  0  0  0
  6 11  1  0  0  0
  9 13  1  0  0  0
 13 14  2  0  0  0
 14 15  1  0  0  0
 15 16  2  0  0  0
 16 17  1  0  0  0
 13 17  1  0  0  0
 17 18  1  0  0  0
 20 26  1  0  0  0
 27 28  1  0  0  0
  5 12  1  0  0  0
M  END
> <minimizedAffinity>
-11.21528

$$$$
mol_66647044_5


 34 37  0  0  0  0  0  0  0  0999 V2000
    1.3203   -2.4773  -20.3259 C   0  0  0  0  0  0  0  0  0  0  0  0
    1.7847   -2.4529  -19.1888 O   0  0  0  0  0  0  0  0  0  0  0  0
    2.1049   -3.0740  -21.4087 C   0  0  0  0  0  0  0  0  0  0  0  0
    1.4961   -3.5516  -22.5634 C   0  0  0  0  0  0  0  0  0  0  0  0
    2.4651   -3.9586  -23.4361 N   0  0  0  0  0  0  0  0  0  0  0  0
    3.6934   -3.8002  -22.8639 C   0  0  0  0  0  0  0  0  0  0  0  0
    3.5129   -3.3250  -21.5672 C   0  0  0  0  0  0  0  0  0  0  0  0
    4.6826   -3.1710  -20.7906 C   0  0  0  0  0  0  0  0  0  0  0  0
    5.9266   -3.3980  -21.3959 C   0  0  0  0  0  0  0  0  0  0  0  0
    5.9372   -3.8504  -22.7145 C   0  0  0  0  0  0  0  0  0  0  0  0
    4.8505   -4.0789  -23.4892 N   0  0  0  0  0  0  0  0  0  0  0  0
    2.3232   -4.3172  -24.3691 H   0  0  0  0  0  0  0  0  0  0  0  0
    7.1632   -3.1794  -20.6510 C   0  0  0  0  0  0  0  0  0  0  0  0
    7.7297   -1.9876  -20.2343 C   0  0  0  0  0  0  0  0  0  0  0  0
    8.8954   -2.3461  -19.5406 C   0  0  0  0  0  0  0  0  0  0  0  0
    9.0886   -3.6638  -19.5291 N   0  0  0  0  0  0  0  0  0  0  0  0
    8.0390   -4.1550  -20.2210 N   0  0  0  0  0  0  0  0  0  0  0  0
    7.9918   -5.5830  -20.4388 C   0  0  0  0  0  0  0  0  0  0  0  0
   -2.4644   -2.3647  -20.6740 C   0  0  0  0  0  0  0  0  0  0  0  0
   -1.1479   -2.8238  -20.5066 C   0  0  0  0  0  0  0  0  0  0  0  0
   -0.0541   -1.9474  -20.5440 C   0  0  0  0  0  0  0  0  0  0  0  0
   -0.3306   -0.6159  -20.8472 C   0  0  0  0  0  0  0  0  0  0  0  0
   -1.6332   -0.1252  -20.8385 C   0  0  0  0  0  0  0  0  0  0  0  0
   -2.7036   -0.9991  -20.6898 C   0  0  0  0  0  0  0  0  0  0  0  0
    0.6261    0.2444  -21.2107 F   0  0  0  0  0  0  0  0  0  0  0  0
   -0.9776   -4.1494  -20.3693 F   0  0  0  0  0  0  0  0  0  0  0  0
   -3.5130   -3.3267  -20.7982 N   0  0  0  0  0  0  0  0  0  0  0  0
   -3.7705   -3.5956  -21.7528 H   0  0  0  0  0  0  0  0  0  0  0  0
   -4.8180   -3.3727  -19.7372 S   0  0  0  0  0  0  0  0  0  0  0  0
   -5.2255   -4.7479  -19.5662 O   0  0  0  0  0  0  0  0  0  0  0  0
   -5.7462   -2.3892  -20.2609 O   0  0  0  0  0  0  0  0  0  0  0  0
   -4.1789   -2.7226  -18.1752 C   0  0  0  0  0  0  0  0  0  0  0  0
   -5.5039   -2.9729  -15.9922 C   0  0  0  0  0  0  0  0  0  0  0  0
   -4.4866   -3.5792  -16.9446 C   0  0  0  0  0  0  0  0  0  0  0  0
 33 34  1  0  0  0
 34 32  1  0  0  0
 32 29  1  0  0  0
 29 30  2  0  0  0
 29 31  2  0  0  0
 29 27  1  0  0  0
 27 19  1  0  0  0
 19 20  2  0  0  0
 20 21  1  0  0  0
 21 22  2  0  0  0
 22 23  1  0  0  0
 23 24  2  0  0  0
 19 24  1  0  0  0
 22 25  1  0  0  0
 21  1  1  0  0  0
  1  2  2  0  0  0
  1  3  1  0  0  0
  3  4  2  0  0  0
  4  5  1  0  0  0
  5  6  1  0  0  0
  6  7  2  0  0  0
  3  7  1  0  0  0
  7  8  1  0  0  0
  8  9  2  0  0  0
  9 10  1  0  0  0
 10 11  2  0  0  0
  6 11  1  0  0  0
  9 13  1  0  0  0
 13 14  2  0  0  0
 14 15  1  0  0  0
 15 16  2  0  0  0
 16 17  1  0  0  0
 13 17  1  0  0  0
 17 18  1  0  0  0
 20 26  1  0  0  0
 27 28  1  0  0  0
  5 12  1  0  0  0
M  END
> <minimizedAffinity>
-11.10404

$$$$
mol_66647044_5


 34 37  0  0  0  0  0  0  0  0999 V2000
    2.0273   -2.3935  -19.4640 C   0  0  0  0  0  0  0  0  0  0  0  0
    2.0221   -2.9292  -18.3585 O   0  0  0  0  0  0  0  0  0  0  0  0
    3.2745   -2.3395  -20.2294 C   0  0  0  0  0  0  0  0  0  0  0  0
    4.3282   -1.5227  -19.8366 C   0  0  0  0  0  0  0  0  0  0  0  0
    5.3900   -1.7435  -20.6673 N   0  0  0  0  0  0  0  0  0  0  0  0
    5.0432   -2.6537  -21.6226 C   0  0  0  0  0  0  0  0  0  0  0  0
    3.7056   -2.9939  -21.4363 C   0  0  0  0  0  0  0  0  0  0  0  0
    3.1479   -3.8766  -22.3875 C   0  0  0  0  0  0  0  0  0  0  0  0
    3.9854   -4.4234  -23.3699 C   0  0  0  0  0  0  0  0  0  0  0  0
    5.3118   -3.9959  -23.4074 C   0  0  0  0  0  0  0  0  0  0  0  0
    5.8880   -3.1053  -22.5660 N   0  0  0  0  0  0  0  0  0  0  0  0
    6.3038   -1.3193  -20.6024 H   0  0  0  0  0  0  0  0  0  0  0  0
    3.4667   -5.3961  -24.3272 C   0  0  0  0  0  0  0  0  0  0  0  0
    3.3446   -6.7682  -24.1950 C   0  0  0  0  0  0  0  0  0  0  0  0
    2.7660   -7.2127  -25.3934 C   0  0  0  0  0  0  0  0  0  0  0  0
    2.5529   -6.2150  -26.2494 N   0  0  0  0  0  0  0  0  0  0  0  0
    2.9984   -5.1215  -25.5956 N   0  0  0  0  0  0  0  0  0  0  0  0
    2.9567   -3.8594  -26.2989 C   0  0  0  0  0  0  0  0  0  0  0  0
   -1.5879   -2.2819  -20.6370 C   0  0  0  0  0  0  0  0  0  0  0  0
   -0.3478   -2.7373  -20.1606 C   0  0  0  0  0  0  0  0  0  0  0  0
    0.7430   -1.8700  -20.0063 C   0  0  0  0  0  0  0  0  0  0  0  0
    0.5627   -0.5569  -20.4357 C   0  0  0  0  0  0  0  0  0  0  0  0
   -0.7016   -0.0599  -20.7391 C   0  0  0  0  0  0  0  0  0  0  0  0
   -1.7938   -0.9183  -20.7801 C   0  0  0  0  0  0  0  0  0  0  0  0
    1.5906    0.2761  -20.6282 F   0  0  0  0  0  0  0  0  0  0  0  0
   -0.2350   -4.0535  -19.9165 F   0  0  0  0  0  0  0  0  0  0  0  0
   -2.6010   -3.2441  -20.9342 N   0  0  0  0  0  0  0  0  0  0  0  0
   -2.4324   -3.8429  -21.7483 H   0  0  0  0  0  0  0  0  0  0  0  0
   -4.2354   -2.9307  -20.6871 S   0  0  0  0  0  0  0  0  0  0  0  0
   -4.9584   -4.1799  -20.7427 O   0  0  0  0  0  0  0  0  0  0  0  0
   -4.5438   -1.8594  -21.6147 O   0  0  0  0  0  0  0  0  0  0  0  0
   -4.3358   -2.2365  -19.0201 C   0  0  0  0  0  0  0  0  0  0  0  0
   -4.9404   -2.7140  -16.5725 C   0  0  0  0  0  0  0  0  0  0  0  0
   -4.4382   -3.2693  -17.8951 C   0  0  0  0  0  0  0  0  0  0  0  0
 33 34  1  0  0  0
 34 32  1  0  0  0
 32 29  1  0  0  0
 29 30  2  0  0  0
 29 31  2  0  0  0
 29 27  1  0  0  0
 27 19  1  0  0  0
 19 20  2  0  0  0
 20 21  1  0  0  0
 21 22  2  0  0  0
 22 23  1  0  0  0
 23 24  2  0  0  0
 19 24  1  0  0  0
 22 25  1  0  0  0
 21  1  1  0  0  0
  1  2  2  0  0  0
  1  3  1  0  0  0
  3  4  2  0  0  0
  4  5  1  0  0  0
  5  6  1  0  0  0
  6  7  2  0  0  0
  3  7  1  0  0  0
  7  8  1  0  0  0
  8  9  2  0  0  0
  9 10  1  0  0  0
 10 11  2  0  0  0
  6 11  1  0  0  0
  9 13  1  0  0  0
 13 14  2  0  0  0
 14 15  1  0  0  0
 15 16  2  0  0  0
 16 17  1  0  0  0
 13 17  1  0  0  0
 17 18  1  0  0  0
 20 26  1  0  0  0
 27 28  1  0  0  0
  5 12  1  0  0  0
M  END
> <minimizedAffinity>
-10.83191

$$$$
mol_58087124_6


 34 37  0  0  0  0  0  0  0  0999 V2000
    1.4004   -2.5729  -20.6201 C   0  0  0  0  0  0  0  0  0  0  0  0
    1.7973   -3.3381  -21.4950 O   0  0  0  0  0  0  0  0  0  0  0  0
    2.3204   -2.1559  -19.5606 C   0  0  0  0  0  0  0  0  0  0  0  0
    1.8586   -1.6083  -18.3696 C   0  0  0  0  0  0  0  0  0  0  0  0
    2.9208   -1.4293  -17.5286 N   0  0  0  0  0  0  0  0  0  0  0  0
    4.0710   -1.8117  -18.1550 C   0  0  0  0  0  0  0  0  0  0  0  0
    3.7551   -2.1772  -19.4617 C   0  0  0  0  0  0  0  0  0  0  0  0
    4.8402   -2.5194  -20.2989 C   0  0  0  0  0  0  0  0  0  0  0  0
    6.1196   -2.5832  -19.7307 C   0  0  0  0  0  0  0  0  0  0  0  0
    6.2660   -2.2364  -18.3888 C   0  0  0  0  0  0  0  0  0  0  0  0
    5.2782   -1.8150  -17.5635 N   0  0  0  0  0  0  0  0  0  0  0  0
    2.8875   -1.0898  -16.5783 H   0  0  0  0  0  0  0  0  0  0  0  0
    7.2551   -3.0133  -20.5141 C   0  0  0  0  0  0  0  0  0  0  0  0
    7.1987   -3.9211  -21.5514 C   0  0  0  0  0  0  0  0  0  0  0  0
    8.4788   -4.0516  -22.0099 N   0  0  0  0  0  0  0  0  0  0  0  0
    9.3630   -3.2797  -21.3522 N   0  0  0  0  0  0  0  0  0  0  0  0
    8.6159   -2.6481  -20.4426 C   0  0  0  0  0  0  0  0  0  0  0  0
    8.9391   -4.9124  -23.0728 C   0  0  0  0  0  0  0  0  0  0  0  0
   -2.4071   -2.4521  -20.7119 C   0  0  0  0  0  0  0  0  0  0  0  0
   -1.0802   -2.9135  -20.6438 C   0  0  0  0  0  0  0  0  0  0  0  0
    0.0120   -2.0338  -20.7150 C   0  0  0  0  0  0  0  0  0  0  0  0
   -0.2827   -0.6886  -20.9342 C   0  0  0  0  0  0  0  0  0  0  0  0
   -1.5845   -0.2042  -20.8479 C   0  0  0  0  0  0  0  0  0  0  0  0
   -2.6444   -1.0850  -20.6814 C   0  0  0  0  0  0  0  0  0  0  0  0
    0.6508    0.1993  -21.2884 F   0  0  0  0  0  0  0  0  0  0  0  0
   -0.9011   -4.2432  -20.5685 F   0  0  0  0  0  0  0  0  0  0  0  0
   -3.4693   -3.4102  -20.7652 N   0  0  0  0  0  0  0  0  0  0  0  0
   -3.7637   -3.7071  -21.7009 H   0  0  0  0  0  0  0  0  0  0  0  0
   -4.7439   -3.3930  -19.6613 S   0  0  0  0  0  0  0  0  0  0  0  0
   -5.2548   -4.7399  -19.5120 O   0  0  0  0  0  0  0  0  0  0  0  0
   -5.6119   -2.3260  -20.1071 O   0  0  0  0  0  0  0  0  0  0  0  0
   -3.9752   -2.8525  -18.1201 C   0  0  0  0  0  0  0  0  0  0  0  0
   -5.4864   -2.9646  -16.0589 C   0  0  0  0  0  0  0  0  0  0  0  0
   -4.3975   -3.6392  -16.8796 C   0  0  0  0  0  0  0  0  0  0  0  0
 33 34  1  0  0  0
 34 32  1  0  0  0
 32 29  1  0  0  0
 29 30  2  0  0  0
 29 31  2  0  0  0
 29 27  1  0  0  0
 27 19  1  0  0  0
 19 20  2  0  0  0
 20 21  1  0  0  0
 21 22  2  0  0  0
 22 23  1  0  0  0
 23 24  2  0  0  0
 19 24  1  0  0  0
 22 25  1  0  0  0
 21  1  1  0  0  0
  1  2  2  0  0  0
  1  3  1  0  0  0
  3  4  2  0  0  0
  4  5  1  0  0  0
  5  6  1  0  0  0
  6  7  2  0  0  0
  3  7  1  0  0  0
  7  8  1  0  0  0
  8  9  2  0  0  0
  9 10  1  0  0  0
 10 11  2  0  0  0
  6 11  1  0  0  0
  9 13  1  0  0  0
 13 14  2  0  0  0
 14 15  1  0  0  0
 15 16  1  0  0  0
 16 17  2  0  0  0
 13 17  1  0  0  0
 15 18  1  0  0  0
 20 26  1  0  0  0
 27 28  1  0  0  0
  5 12  1  0  0  0
M  END
> <minimizedAffinity>
-11.12042

$$$$
mol_58087124_6


 34 37  0  0  0  0  0  0  0  0999 V2000
    1.6479   -2.6008  -19.5829 C   0  0  0  0  0  0  0  0  0  0  0  0
    1.6210   -3.2674  -18.5517 O   0  0  0  0  0  0  0  0  0  0  0  0
    2.9083   -2.4610  -20.3140 C   0  0  0  0  0  0  0  0  0  0  0  0
    3.9476   -1.6759  -19.8293 C   0  0  0  0  0  0  0  0  0  0  0  0
    5.0310   -1.8286  -20.6482 N   0  0  0  0  0  0  0  0  0  0  0  0
    4.7130   -2.6654  -21.6778 C   0  0  0  0  0  0  0  0  0  0  0  0
    3.3664   -3.0042  -21.5645 C   0  0  0  0  0  0  0  0  0  0  0  0
    2.8284   -3.7989  -22.6010 C   0  0  0  0  0  0  0  0  0  0  0  0
    3.7011   -4.2812  -23.5856 C   0  0  0  0  0  0  0  0  0  0  0  0
    5.0387   -3.8937  -23.5320 C   0  0  0  0  0  0  0  0  0  0  0  0
    5.5904   -3.0630  -22.6155 N   0  0  0  0  0  0  0  0  0  0  0  0
    5.9443   -1.4166  -20.5237 H   0  0  0  0  0  0  0  0  0  0  0  0
    3.2272   -5.1710  -24.6210 C   0  0  0  0  0  0  0  0  0  0  0  0
    2.6934   -6.4239  -24.4002 C   0  0  0  0  0  0  0  0  0  0  0  0
    2.3846   -6.9260  -25.6323 N   0  0  0  0  0  0  0  0  0  0  0  0
    2.6667   -6.0801  -26.6399 N   0  0  0  0  0  0  0  0  0  0  0  0
    3.1788   -5.0122  -26.0219 C   0  0  0  0  0  0  0  0  0  0  0  0
    1.8254   -8.2230  -25.9285 C   0  0  0  0  0  0  0  0  0  0  0  0
   -1.9837   -2.3434  -20.7078 C   0  0  0  0  0  0  0  0  0  0  0  0
   -0.7546   -2.8462  -20.2447 C   0  0  0  0  0  0  0  0  0  0  0  0
    0.3716   -2.0209  -20.0951 C   0  0  0  0  0  0  0  0  0  0  0  0
    0.2324   -0.6944  -20.5019 C   0  0  0  0  0  0  0  0  0  0  0  0
   -1.0119   -0.1540  -20.8121 C   0  0  0  0  0  0  0  0  0  0  0  0
   -2.1324   -0.9720  -20.8615 C   0  0  0  0  0  0  0  0  0  0  0  0
    1.2813    0.1165  -20.6673 F   0  0  0  0  0  0  0  0  0  0  0  0
   -0.6875   -4.1674  -20.0084 F   0  0  0  0  0  0  0  0  0  0  0  0
   -3.0532   -3.2603  -20.9618 N   0  0  0  0  0  0  0  0  0  0  0  0
   -3.1480   -3.5875  -21.9284 H   0  0  0  0  0  0  0  0  0  0  0  0
   -4.5374   -3.1428  -20.1702 S   0  0  0  0  0  0  0  0  0  0  0  0
   -5.1447   -4.4564  -20.1121 O   0  0  0  0  0  0  0  0  0  0  0  0
   -5.2230   -2.0475  -20.8189 O   0  0  0  0  0  0  0  0  0  0  0  0
   -4.0995   -2.5937  -18.5073 C   0  0  0  0  0  0  0  0  0  0  0  0
   -5.1312   -3.0065  -16.2029 C   0  0  0  0  0  0  0  0  0  0  0  0
   -4.3995   -3.6005  -17.3971 C   0  0  0  0  0  0  0  0  0  0  0  0
 33 34  1  0  0  0
 34 32  1  0  0  0
 32 29  1  0  0  0
 29 30  2  0  0  0
 29 31  2  0  0  0
 29 27  1  0  0  0
 27 19  1  0  0  0
 19 20  2  0  0  0
 20 21  1  0  0  0
 21 22  2  0  0  0
 22 23  1  0  0  0
 23 24  2  0  0  0
 19 24  1  0  0  0
 22 25  1  0  0  0
 21  1  1  0  0  0
  1  2  2  0  0  0
  1  3  1  0  0  0
  3  4  2  0  0  0
  4  5  1  0  0  0
  5  6  1  0  0  0
  6  7  2  0  0  0
  3  7  1  0  0  0
  7  8  1  0  0  0
  8  9  2  0  0  0
  9 10  1  0  0  0
 10 11  2  0  0  0
  6 11  1  0  0  0
  9 13  1  0  0  0
 13 14  2  0  0  0
 14 15  1  0  0  0
 15 16  1  0  0  0
 16 17  2  0  0  0
 13 17  1  0  0  0
 15 18  1  0  0  0
 20 26  1  0  0  0
 27 28  1  0  0  0
  5 12  1  0  0  0
M  END
> <minimizedAffinity>
-10.39998

$$$$
mol_58087124_6


 34 37  0  0  0  0  0  0  0  0999 V2000
    5.9436   -2.3564  -20.7421 C   0  0  0  0  0  0  0  0  0  0  0  0
    6.3196   -1.2439  -21.1019 O   0  0  0  0  0  0  0  0  0  0  0  0
    6.7126   -3.5368  -21.1397 C   0  0  0  0  0  0  0  0  0  0  0  0
    8.0033   -3.7557  -20.6730 C   0  0  0  0  0  0  0  0  0  0  0  0
    8.4241   -4.9815  -21.1066 N   0  0  0  0  0  0  0  0  0  0  0  0
    7.4539   -5.5532  -21.8769 C   0  0  0  0  0  0  0  0  0  0  0  0
    6.4078   -4.6424  -22.0077 C   0  0  0  0  0  0  0  0  0  0  0  0
    5.3424   -5.0252  -22.8524 C   0  0  0  0  0  0  0  0  0  0  0  0
    5.3570   -6.3191  -23.3906 C   0  0  0  0  0  0  0  0  0  0  0  0
    6.4551   -7.1347  -23.1237 C   0  0  0  0  0  0  0  0  0  0  0  0
    7.5446   -6.7896  -22.3966 N   0  0  0  0  0  0  0  0  0  0  0  0
    9.3020   -5.4299  -20.8886 H   0  0  0  0  0  0  0  0  0  0  0  0
    4.2526   -6.7994  -24.1892 C   0  0  0  0  0  0  0  0  0  0  0  0
    4.3050   -7.8911  -25.0311 C   0  0  0  0  0  0  0  0  0  0  0  0
    3.0652   -7.9937  -25.5951 N   0  0  0  0  0  0  0  0  0  0  0  0
    2.2041   -7.0526  -25.1670 N   0  0  0  0  0  0  0  0  0  0  0  0
    2.9288   -6.3273  -24.3108 C   0  0  0  0  0  0  0  0  0  0  0  0
    2.6300   -8.9649  -26.5697 C   0  0  0  0  0  0  0  0  0  0  0  0
    2.3346   -2.7755  -19.5934 C   0  0  0  0  0  0  0  0  0  0  0  0
    3.4818   -2.6588  -20.3987 C   0  0  0  0  0  0  0  0  0  0  0  0
    4.7558   -2.4559  -19.8440 C   0  0  0  0  0  0  0  0  0  0  0  0
    4.8166   -2.2987  -18.4598 C   0  0  0  0  0  0  0  0  0  0  0  0
    3.7188   -2.5655  -17.6471 C   0  0  0  0  0  0  0  0  0  0  0  0
    2.4871   -2.8585  -18.2164 C   0  0  0  0  0  0  0  0  0  0  0  0
    5.9063   -1.8368  -17.8399 F   0  0  0  0  0  0  0  0  0  0  0  0
    3.2972   -2.6891  -21.7294 F   0  0  0  0  0  0  0  0  0  0  0  0
    1.0522   -2.8498  -20.2251 N   0  0  0  0  0  0  0  0  0  0  0  0
    0.9587   -3.5386  -20.9783 H   0  0  0  0  0  0  0  0  0  0  0  0
    0.1007   -1.4810  -20.4787 S   0  0  0  0  0  0  0  0  0  0  0  0
    0.3217   -0.9978  -21.8261 O   0  0  0  0  0  0  0  0  0  0  0  0
    0.3626   -0.6263  -19.3423 O   0  0  0  0  0  0  0  0  0  0  0  0
   -1.5899   -2.0918  -20.3140 C   0  0  0  0  0  0  0  0  0  0  0  0
   -4.0203   -1.7944  -21.0556 C   0  0  0  0  0  0  0  0  0  0  0  0
   -2.6718   -1.1337  -20.8116 C   0  0  0  0  0  0  0  0  0  0  0  0
 33 34  1  0  0  0
 34 32  1  0  0  0
 32 29  1  0  0  0
 29 30  2  0  0  0
 29 31  2  0  0  0
 29 27  1  0  0  0
 27 19  1  0  0  0
 19 20  2  0  0  0
 20 21  1  0  0  0
 21 22  2  0  0  0
 22 23  1  0  0  0
 23 24  2  0  0  0
 19 24  1  0  0  0
 22 25  1  0  0  0
 21  1  1  0  0  0
  1  2  2  0  0  0
  1  3  1  0  0  0
  3  4  2  0  0  0
  4  5  1  0  0  0
  5  6  1  0  0  0
  6  7  2  0  0  0
  3  7  1  0  0  0
  7  8  1  0  0  0
  8  9  2  0  0  0
  9 10  1  0  0  0
 10 11  2  0  0  0
  6 11  1  0  0  0
  9 13  1  0  0  0
 13 14  2  0  0  0
 14 15  1  0  0  0
 15 16  1  0  0  0
 16 17  2  0  0  0
 13 17  1  0  0  0
 15 18  1  0  0  0
 20 26  1  0  0  0
 27 28  1  0  0  0
  5 12  1  0  0  0
M  END
> <minimizedAffinity>
-10.27728

$$$$
mol_66646554_7


 34 37  0  0  0  0  0  0  0  0999 V2000
    1.5594   -2.2706  -20.8296 C   0  0  0  0  0  0  0  0  0  0  0  0
    2.0496   -2.8458  -21.7961 O   0  0  0  0  0  0  0  0  0  0  0  0
    2.4346   -1.9031  -19.7051 C   0  0  0  0  0  0  0  0  0  0  0  0
    1.9074   -1.4215  -18.5117 C   0  0  0  0  0  0  0  0  0  0  0  0
    2.9151   -1.3093  -17.5962 N   0  0  0  0  0  0  0  0  0  0  0  0
    4.0983   -1.6694  -18.1710 C   0  0  0  0  0  0  0  0  0  0  0  0
    3.8633   -1.9462  -19.5163 C   0  0  0  0  0  0  0  0  0  0  0  0
    4.9999   -2.2557  -20.2967 C   0  0  0  0  0  0  0  0  0  0  0  0
    6.2382   -2.3839  -19.6520 C   0  0  0  0  0  0  0  0  0  0  0  0
    6.2990   -2.1223  -18.2852 C   0  0  0  0  0  0  0  0  0  0  0  0
    5.2638   -1.7321  -17.5035 N   0  0  0  0  0  0  0  0  0  0  0  0
    2.8226   -1.0354  -16.6287 H   0  0  0  0  0  0  0  0  0  0  0  0
    7.4137   -2.7869  -20.3917 C   0  0  0  0  0  0  0  0  0  0  0  0
    7.4457   -3.7693  -21.3607 C   0  0  0  0  0  0  0  0  0  0  0  0
    8.7390   -3.8283  -21.7982 N   0  0  0  0  0  0  0  0  0  0  0  0
    9.5473   -2.9377  -21.1958 N   0  0  0  0  0  0  0  0  0  0  0  0
    8.7397   -2.3064  -20.3401 C   0  0  0  0  0  0  0  0  0  0  0  0
    9.2854   -4.7240  -22.7891 C   0  0  0  0  0  0  0  0  0  0  0  0
   -2.2926   -2.4023  -20.7089 C   0  0  0  0  0  0  0  0  0  0  0  0
   -0.9420   -2.8359  -20.7325 C   0  0  0  0  0  0  0  0  0  0  0  0
    0.1068   -1.8970  -20.8552 C   0  0  0  0  0  0  0  0  0  0  0  0
   -0.2679   -0.5670  -21.0617 C   0  0  0  0  0  0  0  0  0  0  0  0
   -1.5619   -0.1256  -20.8256 C   0  0  0  0  0  0  0  0  0  0  0  0
   -2.5655   -1.0473  -20.5804 C   0  0  0  0  0  0  0  0  0  0  0  0
    0.5900    0.3438  -21.5358 F   0  0  0  0  0  0  0  0  0  0  0  0
   -0.6831   -4.5551  -20.6473 Cl  0  0  0  0  0  0  0  0  0  0  0  0
   -3.3637   -3.3541  -20.7858 N   0  0  0  0  0  0  0  0  0  0  0  0
   -3.6258   -3.6690  -21.7254 H   0  0  0  0  0  0  0  0  0  0  0  0
   -4.6725   -3.3430  -19.7249 S   0  0  0  0  0  0  0  0  0  0  0  0
   -5.2549   -4.6683  -19.6950 O   0  0  0  0  0  0  0  0  0  0  0  0
   -5.4650   -2.2043  -20.1352 O   0  0  0  0  0  0  0  0  0  0  0  0
   -3.9670   -2.9489  -18.1065 C   0  0  0  0  0  0  0  0  0  0  0  0
   -5.5211   -3.0726  -16.0676 C   0  0  0  0  0  0  0  0  0  0  0  0
   -4.9059   -2.2049  -17.1530 C   0  0  0  0  0  0  0  0  0  0  0  0
 33 34  1  0  0  0
 34 32  1  0  0  0
 32 29  1  0  0  0
 29 30  2  0  0  0
 29 31  2  0  0  0
 29 27  1  0  0  0
 27 19  1  0  0  0
 19 20  2  0  0  0
 20 21  1  0  0  0
 21 22  2  0  0  0
 22 23  1  0  0  0
 23 24  2  0  0  0
 19 24  1  0  0  0
 22 25  1  0  0  0
 21  1  1  0  0  0
  1  2  2  0  0  0
  1  3  1  0  0  0
  3  4  2  0  0  0
  4  5  1  0  0  0
  5  6  1  0  0  0
  6  7  2  0  0  0
  3  7  1  0  0  0
  7  8  1  0  0  0
  8  9  2  0  0  0
  9 10  1  0  0  0
 10 11  2  0  0  0
  6 11  1  0  0  0
  9 13  1  0  0  0
 13 14  2  0  0  0
 14 15  1  0  0  0
 15 16  1  0  0  0
 16 17  2  0  0  0
 13 17  1  0  0  0
 15 18  1  0  0  0
 20 26  1  0  0  0
 27 28  1  0  0  0
  5 12  1  0  0  0
M  END
> <minimizedAffinity>
-11.08034

$$$$
mol_66646554_7


 34 37  0  0  0  0  0  0  0  0999 V2000
    1.4446   -2.1031  -20.3207 C   0  0  0  0  0  0  0  0  0  0  0  0
    1.9684   -1.7871  -19.2572 O   0  0  0  0  0  0  0  0  0  0  0  0
    2.2369   -2.8593  -21.3035 C   0  0  0  0  0  0  0  0  0  0  0  0
    1.6348   -3.4553  -22.4064 C   0  0  0  0  0  0  0  0  0  0  0  0
    2.6075   -3.9514  -23.2272 N   0  0  0  0  0  0  0  0  0  0  0  0
    3.8330   -3.7293  -22.6715 C   0  0  0  0  0  0  0  0  0  0  0  0
    3.6452   -3.1448  -21.4206 C   0  0  0  0  0  0  0  0  0  0  0  0
    4.8122   -2.9203  -20.6561 C   0  0  0  0  0  0  0  0  0  0  0  0
    6.0574   -3.1779  -21.2464 C   0  0  0  0  0  0  0  0  0  0  0  0
    6.0783   -3.7170  -22.5307 C   0  0  0  0  0  0  0  0  0  0  0  0
    4.9937   -4.0396  -23.2753 N   0  0  0  0  0  0  0  0  0  0  0  0
    2.4711   -4.3906  -24.1262 H   0  0  0  0  0  0  0  0  0  0  0  0
    7.2824   -2.8798  -20.5380 C   0  0  0  0  0  0  0  0  0  0  0  0
    8.5555   -3.1109  -21.0185 C   0  0  0  0  0  0  0  0  0  0  0  0
    9.4121   -2.6889  -20.0410 N   0  0  0  0  0  0  0  0  0  0  0  0
    8.7851   -2.1795  -18.9654 N   0  0  0  0  0  0  0  0  0  0  0  0
    7.4902   -2.2978  -19.2692 C   0  0  0  0  0  0  0  0  0  0  0  0
   10.8539   -2.7503  -20.0574 C   0  0  0  0  0  0  0  0  0  0  0  0
   -2.3896   -2.3352  -20.6599 C   0  0  0  0  0  0  0  0  0  0  0  0
   -1.0387   -2.7302  -20.4816 C   0  0  0  0  0  0  0  0  0  0  0  0
   -0.0003   -1.7748  -20.5550 C   0  0  0  0  0  0  0  0  0  0  0  0
   -0.3710   -0.4777  -20.9182 C   0  0  0  0  0  0  0  0  0  0  0  0
   -1.6921   -0.0558  -20.8801 C   0  0  0  0  0  0  0  0  0  0  0  0
   -2.7012   -0.9827  -20.6816 C   0  0  0  0  0  0  0  0  0  0  0  0
    0.5222    0.4153  -21.3600 F   0  0  0  0  0  0  0  0  0  0  0  0
   -0.7607   -4.4284  -20.2194 Cl  0  0  0  0  0  0  0  0  0  0  0  0
   -3.4252   -3.3205  -20.7855 N   0  0  0  0  0  0  0  0  0  0  0  0
   -3.5922   -3.6873  -21.7280 H   0  0  0  0  0  0  0  0  0  0  0  0
   -4.8256   -3.2972  -19.8491 S   0  0  0  0  0  0  0  0  0  0  0  0
   -5.2715   -4.6604  -19.6499 O   0  0  0  0  0  0  0  0  0  0  0  0
   -5.6851   -2.3340  -20.5021 O   0  0  0  0  0  0  0  0  0  0  0  0
   -4.3246   -2.5808  -18.2655 C   0  0  0  0  0  0  0  0  0  0  0  0
   -5.3928   -3.0403  -15.9775 C   0  0  0  0  0  0  0  0  0  0  0  0
   -4.4424   -3.5199  -17.0620 C   0  0  0  0  0  0  0  0  0  0  0  0
 33 34  1  0  0  0
 34 32  1  0  0  0
 32 29  1  0  0  0
 29 30  2  0  0  0
 29 31  2  0  0  0
 29 27  1  0  0  0
 27 19  1  0  0  0
 19 20  2  0  0  0
 20 21  1  0  0  0
 21 22  2  0  0  0
 22 23  1  0  0  0
 23 24  2  0  0  0
 19 24  1  0  0  0
 22 25  1  0  0  0
 21  1  1  0  0  0
  1  2  2  0  0  0
  1  3  1  0  0  0
  3  4  2  0  0  0
  4  5  1  0  0  0
  5  6  1  0  0  0
  6  7  2  0  0  0
  3  7  1  0  0  0
  7  8  1  0  0  0
  8  9  2  0  0  0
  9 10  1  0  0  0
 10 11  2  0  0  0
  6 11  1  0  0  0
  9 13  1  0  0  0
 13 14  2  0  0  0
 14 15  1  0  0  0
 15 16  1  0  0  0
 16 17  2  0  0  0
 13 17  1  0  0  0
 15 18  1  0  0  0
 20 26  1  0  0  0
 27 28  1  0  0  0
  5 12  1  0  0  0
M  END
> <minimizedAffinity>
-10.48442

$$$$
mol_66646554_7


 34 37  0  0  0  0  0  0  0  0999 V2000
    1.9868   -2.4899  -19.5314 C   0  0  0  0  0  0  0  0  0  0  0  0
    2.0310   -3.0430  -18.4371 O   0  0  0  0  0  0  0  0  0  0  0  0
    3.2207   -2.3950  -20.3276 C   0  0  0  0  0  0  0  0  0  0  0  0
    4.3079   -1.6508  -19.8822 C   0  0  0  0  0  0  0  0  0  0  0  0
    5.3619   -1.8588  -20.7260 N   0  0  0  0  0  0  0  0  0  0  0  0
    4.9819   -2.6919  -21.7367 C   0  0  0  0  0  0  0  0  0  0  0  0
    3.6242   -2.9677  -21.5877 C   0  0  0  0  0  0  0  0  0  0  0  0
    3.0327   -3.7534  -22.6023 C   0  0  0  0  0  0  0  0  0  0  0  0
    3.8602   -4.2934  -23.5968 C   0  0  0  0  0  0  0  0  0  0  0  0
    5.2133   -3.9631  -23.5785 C   0  0  0  0  0  0  0  0  0  0  0  0
    5.8192   -3.1419  -22.6877 N   0  0  0  0  0  0  0  0  0  0  0  0
    6.2968   -1.4913  -20.6243 H   0  0  0  0  0  0  0  0  0  0  0  0
    3.3172   -5.1767  -24.6050 C   0  0  0  0  0  0  0  0  0  0  0  0
    2.9087   -6.4769  -24.3868 C   0  0  0  0  0  0  0  0  0  0  0  0
    2.4680   -6.9434  -25.5933 N   0  0  0  0  0  0  0  0  0  0  0  0
    2.5417   -6.0298  -26.5779 N   0  0  0  0  0  0  0  0  0  0  0  0
    3.0596   -4.9568  -25.9751 C   0  0  0  0  0  0  0  0  0  0  0  0
    1.9681   -8.2646  -25.8888 C   0  0  0  0  0  0  0  0  0  0  0  0
   -1.6799   -2.2842  -20.7075 C   0  0  0  0  0  0  0  0  0  0  0  0
   -0.4484   -2.8324  -20.2652 C   0  0  0  0  0  0  0  0  0  0  0  0
    0.6700   -1.9954  -20.0527 C   0  0  0  0  0  0  0  0  0  0  0  0
    0.5199   -0.6524  -20.4072 C   0  0  0  0  0  0  0  0  0  0  0  0
   -0.7281   -0.0890  -20.6307 C   0  0  0  0  0  0  0  0  0  0  0  0
   -1.8430   -0.9057  -20.7131 C   0  0  0  0  0  0  0  0  0  0  0  0
    1.5730    0.1528  -20.5891 F   0  0  0  0  0  0  0  0  0  0  0  0
   -0.4056   -4.5597  -20.0538 Cl  0  0  0  0  0  0  0  0  0  0  0  0
   -2.7542   -3.1437  -21.1151 N   0  0  0  0  0  0  0  0  0  0  0  0
   -2.6926   -3.5312  -22.0620 H   0  0  0  0  0  0  0  0  0  0  0  0
   -4.3478   -2.9099  -20.6205 S   0  0  0  0  0  0  0  0  0  0  0  0
   -5.0552   -4.1687  -20.7293 O   0  0  0  0  0  0  0  0  0  0  0  0
   -4.7947   -1.7525  -21.3646 O   0  0  0  0  0  0  0  0  0  0  0  0
   -4.2373   -2.4194  -18.8829 C   0  0  0  0  0  0  0  0  0  0  0  0
   -4.7716   -3.0851  -16.4624 C   0  0  0  0  0  0  0  0  0  0  0  0
   -4.4551   -3.5504  -17.8741 C   0  0  0  0  0  0  0  0  0  0  0  0
 33 34  1  0  0  0
 34 32  1  0  0  0
 32 29  1  0  0  0
 29 30  2  0  0  0
 29 31  2  0  0  0
 29 27  1  0  0  0
 27 19  1  0  0  0
 19 20  2  0  0  0
 20 21  1  0  0  0
 21 22  2  0  0  0
 22 23  1  0  0  0
 23 24  2  0  0  0
 19 24  1  0  0  0
 22 25  1  0  0  0
 21  1  1  0  0  0
  1  2  2  0  0  0
  1  3  1  0  0  0
  3  4  2  0  0  0
  4  5  1  0  0  0
  5  6  1  0  0  0
  6  7  2  0  0  0
  3  7  1  0  0  0
  7  8  1  0  0  0
  8  9  2  0  0  0
  9 10  1  0  0  0
 10 11  2  0  0  0
  6 11  1  0  0  0
  9 13  1  0  0  0
 13 14  2  0  0  0
 14 15  1  0  0  0
 15 16  1  0  0  0
 16 17  2  0  0  0
 13 17  1  0  0  0
 15 18  1  0  0  0
 20 26  1  0  0  0
 27 28  1  0  0  0
  5 12  1  0  0  0
M  END
> <minimizedAffinity>
-10.31808

$$$$
mol_58095332_8


 36 39  0  0  0  0  0  0  0  0999 V2000
    7.0622   -2.9932  -19.4580 C   0  0  0  0  0  0  0  0  0  0  0  0
    7.9890   -2.1845  -19.4145 O   0  0  0  0  0  0  0  0  0  0  0  0
    6.5359   -4.5388  -22.8946 C   0  0  0  0  0  0  0  0  0  0  0  0
    6.5030   -3.6505  -21.8055 C   0  0  0  0  0  0  0  0  0  0  0  0
    7.0333   -3.9999  -20.5547 C   0  0  0  0  0  0  0  0  0  0  0  0
    7.5750   -5.2749  -20.4074 C   0  0  0  0  0  0  0  0  0  0  0  0
    7.6534   -6.1500  -21.4879 C   0  0  0  0  0  0  0  0  0  0  0  0
    7.1779   -5.7622  -22.7397 C   0  0  0  0  0  0  0  0  0  0  0  0
    8.0843   -5.6946  -19.2430 F   0  0  0  0  0  0  0  0  0  0  0  0
    5.9202   -2.4546  -21.9947 F   0  0  0  0  0  0  0  0  0  0  0  0
    5.9897   -4.1127  -24.1427 N   0  0  0  0  0  0  0  0  0  0  0  0
    6.2015   -3.1599  -24.4513 H   0  0  0  0  0  0  0  0  0  0  0  0
    4.6236   -4.7724  -24.8516 S   0  0  0  0  0  0  0  0  0  0  0  0
    4.9866   -5.9812  -25.5545 O   0  0  0  0  0  0  0  0  0  0  0  0
    4.0156   -3.6663  -25.5654 O   0  0  0  0  0  0  0  0  0  0  0  0
    3.5413   -5.1633  -23.4638 C   0  0  0  0  0  0  0  0  0  0  0  0
    1.3353   -4.0941  -22.7251 C   0  0  0  0  0  0  0  0  0  0  0  0
    2.8458   -3.9624  -22.8249 C   0  0  0  0  0  0  0  0  0  0  0  0
    5.9785   -2.9642  -18.3909 C   0  0  0  0  0  0  0  0  0  0  0  0
    4.6763   -2.3882  -18.8798 C   0  0  0  0  0  0  0  0  0  0  0  0
    3.4724   -3.0816  -18.7035 C   0  0  0  0  0  0  0  0  0  0  0  0
    2.3502   -2.4724  -19.2565 C   0  0  0  0  0  0  0  0  0  0  0  0
    2.4223   -1.2591  -19.9261 C   0  0  0  0  0  0  0  0  0  0  0  0
    3.5649   -0.5545  -20.0607 N   0  0  0  0  0  0  0  0  0  0  0  0
    4.6495   -1.1408  -19.5137 C   0  0  0  0  0  0  0  0  0  0  0  0
    1.2107   -0.9053  -20.4448 N   0  0  0  0  0  0  0  0  0  0  0  0
    0.3734   -1.8518  -20.0678 C   0  0  0  0  0  0  0  0  0  0  0  0
    1.0273   -2.8144  -19.3315 N   0  0  0  0  0  0  0  0  0  0  0  0
    0.6002   -3.6509  -18.9618 H   0  0  0  0  0  0  0  0  0  0  0  0
   -1.0426   -1.9315  -20.3989 C   0  0  0  0  0  0  0  0  0  0  0  0
   -1.7228   -3.1535  -20.3671 C   0  0  0  0  0  0  0  0  0  0  0  0
   -3.0881   -3.2074  -20.6605 C   0  0  0  0  0  0  0  0  0  0  0  0
   -3.7884   -2.0439  -21.0023 C   0  0  0  0  0  0  0  0  0  0  0  0
   -3.1062   -0.8229  -21.0353 C   0  0  0  0  0  0  0  0  0  0  0  0
   -1.7441   -0.7671  -20.7297 C   0  0  0  0  0  0  0  0  0  0  0  0
   -5.2629   -2.1085  -21.2708 C   0  0  0  0  0  0  0  0  0  0  0  0
 17 18  1  0  0  0
 18 16  1  0  0  0
 16 13  1  0  0  0
 13 14  2  0  0  0
 13 15  2  0  0  0
 13 11  1  0  0  0
 11  3  1  0  0  0
  3  4  2  0  0  0
  4  5  1  0  0  0
  5  6  2  0  0  0
  6  7  1  0  0  0
  7  8  2  0  0  0
  3  8  1  0  0  0
  6  9  1  0  0  0
  5  1  1  0  0  0
  1  2  2  0  0  0
  1 19  1  0  0  0
 19 20  1  0  0  0
 20 21  2  0  0  0
 21 22  1  0  0  0
 22 23  2  0  0  0
 23 24  1  0  0  0
 24 25  2  0  0  0
 20 25  1  0  0  0
 23 26  1  0  0  0
 26 27  2  0  0  0
 27 28  1  0  0  0
 22 28  1  0  0  0
 27 30  1  0  0  0
 30 31  2  0  0  0
 31 32  1  0  0  0
 32 33  2  0  0  0
 33 34  1  0  0  0
 34 35  2  0  0  0
 30 35  1  0  0  0
 33 36  1  0  0  0
  4 10  1  0  0  0
 11 12  1  0  0  0
 28 29  1  0  0  0
M  END
> <minimizedAffinity>
-9.52808

$$$$
mol_58095332_8


 36 39  0  0  0  0  0  0  0  0999 V2000
    1.3370   -2.4862  -20.4605 C   0  0  0  0  0  0  0  0  0  0  0  0
    1.6455   -3.0138  -19.3921 O   0  0  0  0  0  0  0  0  0  0  0  0
   -2.4559   -2.3994  -20.7480 C   0  0  0  0  0  0  0  0  0  0  0  0
   -1.1277   -2.8540  -20.6747 C   0  0  0  0  0  0  0  0  0  0  0  0
   -0.0458   -1.9620  -20.6341 C   0  0  0  0  0  0  0  0  0  0  0  0
   -0.3207   -0.5977  -20.6973 C   0  0  0  0  0  0  0  0  0  0  0  0
   -1.6325   -0.1312  -20.7268 C   0  0  0  0  0  0  0  0  0  0  0  0
   -2.6970   -1.0309  -20.7033 C   0  0  0  0  0  0  0  0  0  0  0  0
    0.6539    0.3195  -20.6832 F   0  0  0  0  0  0  0  0  0  0  0  0
   -0.9234   -4.1822  -20.6698 F   0  0  0  0  0  0  0  0  0  0  0  0
   -3.5091   -3.3627  -20.7727 N   0  0  0  0  0  0  0  0  0  0  0  0
   -3.6718   -3.8634  -21.6506 H   0  0  0  0  0  0  0  0  0  0  0  0
   -4.8266   -3.3500  -19.7393 S   0  0  0  0  0  0  0  0  0  0  0  0
   -5.2894   -4.7038  -19.5388 O   0  0  0  0  0  0  0  0  0  0  0  0
   -5.7150   -2.3488  -20.2970 O   0  0  0  0  0  0  0  0  0  0  0  0
   -4.1802   -2.6805  -18.1952 C   0  0  0  0  0  0  0  0  0  0  0  0
   -5.4993   -3.0419  -16.0308 C   0  0  0  0  0  0  0  0  0  0  0  0
   -4.4126   -3.5522  -16.9623 C   0  0  0  0  0  0  0  0  0  0  0  0
    2.3681   -2.3629  -21.5720 C   0  0  0  0  0  0  0  0  0  0  0  0
    2.5841   -3.6461  -22.3292 C   0  0  0  0  0  0  0  0  0  0  0  0
    3.8743   -4.1500  -22.5363 C   0  0  0  0  0  0  0  0  0  0  0  0
    3.9428   -5.3077  -23.3052 C   0  0  0  0  0  0  0  0  0  0  0  0
    2.8096   -5.9213  -23.8202 C   0  0  0  0  0  0  0  0  0  0  0  0
    1.5570   -5.4773  -23.5878 N   0  0  0  0  0  0  0  0  0  0  0  0
    1.4918   -4.3617  -22.8325 C   0  0  0  0  0  0  0  0  0  0  0  0
    3.1359   -6.9908  -24.6025 N   0  0  0  0  0  0  0  0  0  0  0  0
    4.4500   -7.0852  -24.5441 C   0  0  0  0  0  0  0  0  0  0  0  0
    4.9744   -6.0874  -23.7531 N   0  0  0  0  0  0  0  0  0  0  0  0
    5.9584   -5.9381  -23.5848 H   0  0  0  0  0  0  0  0  0  0  0  0
    5.2752   -8.0638  -25.2386 C   0  0  0  0  0  0  0  0  0  0  0  0
    6.6051   -8.2816  -24.8633 C   0  0  0  0  0  0  0  0  0  0  0  0
    7.3742   -9.2445  -25.5223 C   0  0  0  0  0  0  0  0  0  0  0  0
    6.8291   -9.9926  -26.5732 C   0  0  0  0  0  0  0  0  0  0  0  0
    5.4994   -9.7722  -26.9483 C   0  0  0  0  0  0  0  0  0  0  0  0
    4.7268   -8.8185  -26.2812 C   0  0  0  0  0  0  0  0  0  0  0  0
    7.6511  -11.0543  -27.2422 C   0  0  0  0  0  0  0  0  0  0  0  0
 17 18  1  0  0  0
 18 16  1  0  0  0
 16 13  1  0  0  0
 13 14  2  0  0  0
 13 15  2  0  0  0
 13 11  1  0  0  0
 11  3  1  0  0  0
  3  4  2  0  0  0
  4  5  1  0  0  0
  5  6  2  0  0  0
  6  7  1  0  0  0
  7  8  2  0  0  0
  3  8  1  0  0  0
  6  9  1  0  0  0
  5  1  1  0  0  0
  1  2  2  0  0  0
  1 19  1  0  0  0
 19 20  1  0  0  0
 20 21  2  0  0  0
 21 22  1  0  0  0
 22 23  2  0  0  0
 23 24  1  0  0  0
 24 25  2  0  0  0
 20 25  1  0  0  0
 23 26  1  0  0  0
 26 27  2  0  0  0
 27 28  1  0  0  0
 22 28  1  0  0  0
 27 30  1  0  0  0
 30 31  2  0  0  0
 31 32  1  0  0  0
 32 33  2  0  0  0
 33 34  1  0  0  0
 34 35  2  0  0  0
 30 35  1  0  0  0
 33 36  1  0  0  0
  4 10  1  0  0  0
 11 12  1  0  0  0
 28 29  1  0  0  0
M  END
> <minimizedAffinity>
-9.40549

$$$$
mol_58095332_8


 36 39  0  0  0  0  0  0  0  0999 V2000
    8.3354   -3.7876  -20.4198 C   0  0  0  0  0  0  0  0  0  0  0  0
    8.6946   -4.6251  -19.5924 O   0  0  0  0  0  0  0  0  0  0  0  0
    7.5691   -4.7675  -24.0154 C   0  0  0  0  0  0  0  0  0  0  0  0
    7.4578   -4.5667  -22.6285 C   0  0  0  0  0  0  0  0  0  0  0  0
    8.5288   -4.0744  -21.8680 C   0  0  0  0  0  0  0  0  0  0  0  0
    9.7298   -3.8123  -22.5234 C   0  0  0  0  0  0  0  0  0  0  0  0
    9.8423   -3.9655  -23.9030 C   0  0  0  0  0  0  0  0  0  0  0  0
    8.7481   -4.3962  -24.6517 C   0  0  0  0  0  0  0  0  0  0  0  0
   10.8059   -3.3588  -21.8694 F   0  0  0  0  0  0  0  0  0  0  0  0
    6.2908   -4.8875  -22.0444 F   0  0  0  0  0  0  0  0  0  0  0  0
    6.4349   -5.2590  -24.7294 N   0  0  0  0  0  0  0  0  0  0  0  0
    6.4571   -6.2344  -25.0393 H   0  0  0  0  0  0  0  0  0  0  0  0
    5.3649   -4.2951  -25.5838 S   0  0  0  0  0  0  0  0  0  0  0  0
    5.5766   -4.4857  -27.0001 O   0  0  0  0  0  0  0  0  0  0  0  0
    5.5122   -2.9788  -24.9934 O   0  0  0  0  0  0  0  0  0  0  0  0
    3.7353   -4.9053  -25.1125 C   0  0  0  0  0  0  0  0  0  0  0  0
    1.7808   -4.5929  -23.4885 C   0  0  0  0  0  0  0  0  0  0  0  0
    3.2838   -4.5279  -23.7027 C   0  0  0  0  0  0  0  0  0  0  0  0
    7.6893   -2.4908  -19.9562 C   0  0  0  0  0  0  0  0  0  0  0  0
    6.2179   -2.6279  -19.6687 C   0  0  0  0  0  0  0  0  0  0  0  0
    5.2646   -2.3751  -20.6629 C   0  0  0  0  0  0  0  0  0  0  0  0
    3.9387   -2.4745  -20.2528 C   0  0  0  0  0  0  0  0  0  0  0  0
    3.5904   -2.8099  -18.9520 C   0  0  0  0  0  0  0  0  0  0  0  0
    4.4955   -3.1054  -17.9961 N   0  0  0  0  0  0  0  0  0  0  0  0
    5.7801   -3.0201  -18.3986 C   0  0  0  0  0  0  0  0  0  0  0  0
    2.2383   -2.7668  -18.7730 N   0  0  0  0  0  0  0  0  0  0  0  0
    1.7340   -2.4592  -19.9520 C   0  0  0  0  0  0  0  0  0  0  0  0
    2.7369   -2.2879  -20.8801 N   0  0  0  0  0  0  0  0  0  0  0  0
    2.5960   -2.0186  -21.8426 H   0  0  0  0  0  0  0  0  0  0  0  0
    0.3237   -2.2725  -20.2638 C   0  0  0  0  0  0  0  0  0  0  0  0
   -0.5276   -3.3689  -20.4375 C   0  0  0  0  0  0  0  0  0  0  0  0
   -1.8842   -3.1712  -20.7086 C   0  0  0  0  0  0  0  0  0  0  0  0
   -2.4051   -1.8763  -20.8229 C   0  0  0  0  0  0  0  0  0  0  0  0
   -1.5519   -0.7810  -20.6507 C   0  0  0  0  0  0  0  0  0  0  0  0
   -0.1983   -0.9786  -20.3672 C   0  0  0  0  0  0  0  0  0  0  0  0
   -3.8715   -1.6777  -21.0693 C   0  0  0  0  0  0  0  0  0  0  0  0
 17 18  1  0  0  0
 18 16  1  0  0  0
 16 13  1  0  0  0
 13 14  2  0  0  0
 13 15  2  0  0  0
 13 11  1  0  0  0
 11  3  1  0  0  0
  3  4  2  0  0  0
  4  5  1  0  0  0
  5  6  2  0  0  0
  6  7  1  0  0  0
  7  8  2  0  0  0
  3  8  1  0  0  0
  6  9  1  0  0  0
  5  1  1  0  0  0
  1  2  2  0  0  0
  1 19  1  0  0  0
 19 20  1  0  0  0
 20 21  2  0  0  0
 21 22  1  0  0  0
 22 23  2  0  0  0
 23 24  1  0  0  0
 24 25  2  0  0  0
 20 25  1  0  0  0
 23 26  1  0  0  0
 26 27  2  0  0  0
 27 28  1  0  0  0
 22 28  1  0  0  0
 27 30  1  0  0  0
 30 31  2  0  0  0
 31 32  1  0  0  0
 32 33  2  0  0  0
 33 34  1  0  0  0
 34 35  2  0  0  0
 30 35  1  0  0  0
 33 36  1  0  0  0
  4 10  1  0  0  0
 11 12  1  0  0  0
 28 29  1  0  0  0
M  END
> <minimizedAffinity>
-9.17421

$$$$
mol_58095364_9


 36 39  0  0  0  0  0  0  0  0999 V2000
    7.1129   -2.9675  -19.8062 C   0  0  0  0  0  0  0  0  0  0  0  0
    8.0135   -2.1321  -19.8882 O   0  0  0  0  0  0  0  0  0  0  0  0
    6.3580   -4.6430  -23.1145 C   0  0  0  0  0  0  0  0  0  0  0  0
    6.3837   -3.7309  -22.0504 C   0  0  0  0  0  0  0  0  0  0  0  0
    7.0152   -4.0294  -20.8416 C   0  0  0  0  0  0  0  0  0  0  0  0
    7.5747   -5.2960  -20.6938 C   0  0  0  0  0  0  0  0  0  0  0  0
    7.5801   -6.2068  -21.7530 C   0  0  0  0  0  0  0  0  0  0  0  0
    7.0151   -5.8597  -22.9837 C   0  0  0  0  0  0  0  0  0  0  0  0
    8.1647   -5.6704  -19.5520 F   0  0  0  0  0  0  0  0  0  0  0  0
    5.7465   -2.5609  -22.2264 F   0  0  0  0  0  0  0  0  0  0  0  0
    5.7098   -4.2237  -24.3108 N   0  0  0  0  0  0  0  0  0  0  0  0
    5.8002   -3.2298  -24.5413 H   0  0  0  0  0  0  0  0  0  0  0  0
    4.2748   -4.8661  -24.8695 S   0  0  0  0  0  0  0  0  0  0  0  0
    4.5702   -6.1026  -25.5615 O   0  0  0  0  0  0  0  0  0  0  0  0
    3.6449   -3.7628  -25.5635 O   0  0  0  0  0  0  0  0  0  0  0  0
    3.2835   -5.2045  -23.3990 C   0  0  0  0  0  0  0  0  0  0  0  0
    1.1436   -3.8727  -22.9515 C   0  0  0  0  0  0  0  0  0  0  0  0
    2.6483   -3.9687  -22.7626 C   0  0  0  0  0  0  0  0  0  0  0  0
    6.1040   -2.8893  -18.6769 C   0  0  0  0  0  0  0  0  0  0  0  0
    4.7873   -2.3463  -19.1538 C   0  0  0  0  0  0  0  0  0  0  0  0
    3.6104   -3.0782  -18.9431 C   0  0  0  0  0  0  0  0  0  0  0  0
    2.4428   -2.4385  -19.3322 C   0  0  0  0  0  0  0  0  0  0  0  0
    2.4516   -1.1749  -19.9059 C   0  0  0  0  0  0  0  0  0  0  0  0
    3.5780   -0.4733  -20.1469 N   0  0  0  0  0  0  0  0  0  0  0  0
    4.7118   -1.0963  -19.7716 C   0  0  0  0  0  0  0  0  0  0  0  0
    1.1936   -0.7722  -20.2295 N   0  0  0  0  0  0  0  0  0  0  0  0
    0.4129   -1.7919  -19.9324 C   0  0  0  0  0  0  0  0  0  0  0  0
    1.1210   -2.7920  -19.3112 N   0  0  0  0  0  0  0  0  0  0  0  0
    0.7410   -3.6800  -19.0170 H   0  0  0  0  0  0  0  0  0  0  0  0
   -0.9512   -1.9523  -20.3949 C   0  0  0  0  0  0  0  0  0  0  0  0
   -1.5863   -3.1942  -20.4351 C   0  0  0  0  0  0  0  0  0  0  0  0
   -2.9529   -3.2606  -20.7246 C   0  0  0  0  0  0  0  0  0  0  0  0
   -3.6871   -2.0888  -20.9591 C   0  0  0  0  0  0  0  0  0  0  0  0
   -3.0239   -0.8593  -21.0006 C   0  0  0  0  0  0  0  0  0  0  0  0
   -1.6663   -0.7919  -20.7100 C   0  0  0  0  0  0  0  0  0  0  0  0
   -5.1731   -2.1321  -21.1504 C   0  0  0  0  0  0  0  0  0  0  0  0
 17 18  1  0  0  0
 18 16  1  0  0  0
 16 13  1  0  0  0
 13 14  2  0  0  0
 13 15  2  0  0  0
 13 11  1  0  0  0
 11  3  1  0  0  0
  3  4  2  0  0  0
  4  5  1  0  0  0
  5  6  2  0  0  0
  6  7  1  0  0  0
  7  8  2  0  0  0
  3  8  1  0  0  0
  6  9  1  0  0  0
  5  1  1  0  0  0
  1  2  2  0  0  0
  1 19  1  0  0  0
 19 20  1  0  0  0
 20 21  2  0  0  0
 21 22  1  0  0  0
 22 23  2  0  0  0
 23 24  1  0  0  0
 24 25  2  0  0  0
 20 25  1  0  0  0
 23 26  1  0  0  0
 26 27  2  0  0  0
 27 28  1  0  0  0
 22 28  1  0  0  0
 27 30  1  0  0  0
 30 31  2  0  0  0
 31 32  1  0  0  0
 32 33  2  0  0  0
 33 34  1  0  0  0
 34 35  2  0  0  0
 30 35  1  0  0  0
 34 36  1  0  0  0
  4 10  1  0  0  0
 11 12  1  0  0  0
 28 29  1  0  0  0
M  END
> <minimizedAffinity>
-9.30752

$$$$
mol_58095364_9


 36 39  0  0  0  0  0  0  0  0999 V2000
    1.2591   -2.4748  -20.4464 C   0  0  0  0  0  0  0  0  0  0  0  0
    1.5261   -3.1037  -19.4223 O   0  0  0  0  0  0  0  0  0  0  0  0
   -2.5147   -2.4062  -20.7212 C   0  0  0  0  0  0  0  0  0  0  0  0
   -1.1835   -2.8421  -20.6688 C   0  0  0  0  0  0  0  0  0  0  0  0
   -0.1165   -1.9427  -20.6303 C   0  0  0  0  0  0  0  0  0  0  0  0
   -0.4070   -0.5830  -20.7077 C   0  0  0  0  0  0  0  0  0  0  0  0
   -1.7286   -0.1314  -20.7346 C   0  0  0  0  0  0  0  0  0  0  0  0
   -2.7864   -1.0444  -20.6894 C   0  0  0  0  0  0  0  0  0  0  0  0
    0.5630    0.3396  -20.7143 F   0  0  0  0  0  0  0  0  0  0  0  0
   -0.9685   -4.1686  -20.6880 F   0  0  0  0  0  0  0  0  0  0  0  0
   -3.5246   -3.4097  -20.7293 N   0  0  0  0  0  0  0  0  0  0  0  0
   -3.7305   -3.8267  -21.6419 H   0  0  0  0  0  0  0  0  0  0  0  0
   -4.8630   -3.3954  -19.7331 S   0  0  0  0  0  0  0  0  0  0  0  0
   -5.2432   -4.7659  -19.4642 O   0  0  0  0  0  0  0  0  0  0  0  0
   -5.7798   -2.4897  -20.3927 O   0  0  0  0  0  0  0  0  0  0  0  0
   -4.3295   -2.5930  -18.2064 C   0  0  0  0  0  0  0  0  0  0  0  0
   -5.5184   -3.0331  -15.9823 C   0  0  0  0  0  0  0  0  0  0  0  0
   -4.4371   -3.4676  -16.9576 C   0  0  0  0  0  0  0  0  0  0  0  0
    2.3177   -2.2753  -21.5137 C   0  0  0  0  0  0  0  0  0  0  0  0
    2.5141   -3.5199  -22.3312 C   0  0  0  0  0  0  0  0  0  0  0  0
    3.8034   -4.0363  -22.5217 C   0  0  0  0  0  0  0  0  0  0  0  0
    3.8586   -5.2416  -23.2058 C   0  0  0  0  0  0  0  0  0  0  0  0
    2.7170   -5.8718  -23.6806 C   0  0  0  0  0  0  0  0  0  0  0  0
    1.4735   -5.3699  -23.5357 N   0  0  0  0  0  0  0  0  0  0  0  0
    1.4208   -4.1979  -22.8740 C   0  0  0  0  0  0  0  0  0  0  0  0
    3.0266   -7.0189  -24.3422 N   0  0  0  0  0  0  0  0  0  0  0  0
    4.3436   -7.0744  -24.3478 C   0  0  0  0  0  0  0  0  0  0  0  0
    4.8845   -6.0573  -23.5994 N   0  0  0  0  0  0  0  0  0  0  0  0
    5.8716   -5.8810  -23.4811 H   0  0  0  0  0  0  0  0  0  0  0  0
    5.1319   -7.9378  -25.2043 C   0  0  0  0  0  0  0  0  0  0  0  0
    6.5038   -8.1191  -25.0246 C   0  0  0  0  0  0  0  0  0  0  0  0
    7.1739   -9.0943  -25.7702 C   0  0  0  0  0  0  0  0  0  0  0  0
    6.4734   -9.8966  -26.6827 C   0  0  0  0  0  0  0  0  0  0  0  0
    5.1179   -9.6486  -26.9162 C   0  0  0  0  0  0  0  0  0  0  0  0
    4.4505   -8.6818  -26.1735 C   0  0  0  0  0  0  0  0  0  0  0  0
    7.1509  -11.0253  -27.3996 C   0  0  0  0  0  0  0  0  0  0  0  0
 17 18  1  0  0  0
 18 16  1  0  0  0
 16 13  1  0  0  0
 13 14  2  0  0  0
 13 15  2  0  0  0
 13 11  1  0  0  0
 11  3  1  0  0  0
  3  4  2  0  0  0
  4  5  1  0  0  0
  5  6  2  0  0  0
  6  7  1  0  0  0
  7  8  2  0  0  0
  3  8  1  0  0  0
  6  9  1  0  0  0
  5  1  1  0  0  0
  1  2  2  0  0  0
  1 19  1  0  0  0
 19 20  1  0  0  0
 20 21  2  0  0  0
 21 22  1  0  0  0
 22 23  2  0  0  0
 23 24  1  0  0  0
 24 25  2  0  0  0
 20 25  1  0  0  0
 23 26  1  0  0  0
 26 27  2  0  0  0
 27 28  1  0  0  0
 22 28  1  0  0  0
 27 30  1  0  0  0
 30 31  2  0  0  0
 31 32  1  0  0  0
 32 33  2  0  0  0
 33 34  1  0  0  0
 34 35  2  0  0  0
 30 35  1  0  0  0
 34 36  1  0  0  0
  4 10  1  0  0  0
 11 12  1  0  0  0
 28 29  1  0  0  0
M  END
> <minimizedAffinity>
-9.26871

$$$$
mol_58095364_9


 36 39  0  0  0  0  0  0  0  0999 V2000
    8.6433   -3.8015  -19.3028 C   0  0  0  0  0  0  0  0  0  0  0  0
    8.5907   -4.2663  -18.1640 O   0  0  0  0  0  0  0  0  0  0  0  0
    8.8796   -6.2853  -22.1483 C   0  0  0  0  0  0  0  0  0  0  0  0
    8.4260   -5.5607  -21.0374 C   0  0  0  0  0  0  0  0  0  0  0  0
    9.2337   -4.6224  -20.3922 C   0  0  0  0  0  0  0  0  0  0  0  0
   10.5404   -4.4647  -20.8470 C   0  0  0  0  0  0  0  0  0  0  0  0
   10.9995   -5.1601  -21.9682 C   0  0  0  0  0  0  0  0  0  0  0  0
   10.1496   -6.0348  -22.6516 C   0  0  0  0  0  0  0  0  0  0  0  0
   11.3875   -3.6122  -20.2572 F   0  0  0  0  0  0  0  0  0  0  0  0
    7.1858   -5.8263  -20.5932 F   0  0  0  0  0  0  0  0  0  0  0  0
    7.9626   -7.1963  -22.7452 N   0  0  0  0  0  0  0  0  0  0  0  0
    8.2364   -8.1831  -22.7218 H   0  0  0  0  0  0  0  0  0  0  0  0
    7.0273   -6.8395  -24.0800 S   0  0  0  0  0  0  0  0  0  0  0  0
    5.8022   -7.6054  -23.9936 O   0  0  0  0  0  0  0  0  0  0  0  0
    7.9315   -7.0145  -25.1970 O   0  0  0  0  0  0  0  0  0  0  0  0
    6.6606   -5.0755  -23.9645 C   0  0  0  0  0  0  0  0  0  0  0  0
    4.6887   -3.4433  -23.9333 C   0  0  0  0  0  0  0  0  0  0  0  0
    5.2704   -4.7498  -23.4195 C   0  0  0  0  0  0  0  0  0  0  0  0
    8.1366   -2.3986  -19.5755 C   0  0  0  0  0  0  0  0  0  0  0  0
    6.6596   -2.2902  -19.3253 C   0  0  0  0  0  0  0  0  0  0  0  0
    5.7509   -2.6500  -20.3302 C   0  0  0  0  0  0  0  0  0  0  0  0
    4.4154   -2.6074  -19.9578 C   0  0  0  0  0  0  0  0  0  0  0  0
    4.0175   -2.2164  -18.6872 C   0  0  0  0  0  0  0  0  0  0  0  0
    4.8776   -1.8341  -17.7212 N   0  0  0  0  0  0  0  0  0  0  0  0
    6.1742   -1.8728  -18.0844 C   0  0  0  0  0  0  0  0  0  0  0  0
    2.6625   -2.2255  -18.5708 N   0  0  0  0  0  0  0  0  0  0  0  0
    2.2112   -2.5462  -19.7671 C   0  0  0  0  0  0  0  0  0  0  0  0
    3.2434   -2.8644  -20.6160 N   0  0  0  0  0  0  0  0  0  0  0  0
    3.1430   -3.1138  -21.5892 H   0  0  0  0  0  0  0  0  0  0  0  0
    0.8427   -2.3696  -20.2102 C   0  0  0  0  0  0  0  0  0  0  0  0
   -0.0069   -3.4474  -20.4627 C   0  0  0  0  0  0  0  0  0  0  0  0
   -1.3616   -3.2123  -20.7182 C   0  0  0  0  0  0  0  0  0  0  0  0
   -1.8701   -1.9052  -20.7073 C   0  0  0  0  0  0  0  0  0  0  0  0
   -0.9948   -0.8289  -20.5382 C   0  0  0  0  0  0  0  0  0  0  0  0
    0.3511   -1.0617  -20.2812 C   0  0  0  0  0  0  0  0  0  0  0  0
   -3.3385   -1.6451  -20.8585 C   0  0  0  0  0  0  0  0  0  0  0  0
 17 18  1  0  0  0
 18 16  1  0  0  0
 16 13  1  0  0  0
 13 14  2  0  0  0
 13 15  2  0  0  0
 13 11  1  0  0  0
 11  3  1  0  0  0
  3  4  2  0  0  0
  4  5  1  0  0  0
  5  6  2  0  0  0
  6  7  1  0  0  0
  7  8  2  0  0  0
  3  8  1  0  0  0
  6  9  1  0  0  0
  5  1  1  0  0  0
  1  2  2  0  0  0
  1 19  1  0  0  0
 19 20  1  0  0  0
 20 21  2  0  0  0
 21 22  1  0  0  0
 22 23  2  0  0  0
 23 24  1  0  0  0
 24 25  2  0  0  0
 20 25  1  0  0  0
 23 26  1  0  0  0
 26 27  2  0  0  0
 27 28  1  0  0  0
 22 28  1  0  0  0
 27 30  1  0  0  0
 30 31  2  0  0  0
 31 32  1  0  0  0
 32 33  2  0  0  0
 33 34  1  0  0  0
 34 35  2  0  0  0
 30 35  1  0  0  0
 34 36  1  0  0  0
  4 10  1  0  0  0
 11 12  1  0  0  0
 28 29  1  0  0  0
M  END
> <minimizedAffinity>
-9.21023

$$$$
mol_58252053_10


 31 33  0  0  0  0  0  0  0  0999 V2000
   -2.6098   -2.3629  -20.6572 C   0  0  0  0  0  0  0  0  0  0  0  0
   -1.2666   -2.7635  -20.5909 C   0  0  0  0  0  0  0  0  0  0  0  0
   -0.2182   -1.8346  -20.6134 C   0  0  0  0  0  0  0  0  0  0  0  0
   -0.5398   -0.4859  -20.7363 C   0  0  0  0  0  0  0  0  0  0  0  0
   -1.8690   -0.0678  -20.7450 C   0  0  0  0  0  0  0  0  0  0  0  0
   -2.9009   -1.0039  -20.6522 C   0  0  0  0  0  0  0  0  0  0  0  0
    0.4068    0.4568  -20.8146 F   0  0  0  0  0  0  0  0  0  0  0  0
   -1.0147   -4.0828  -20.5480 F   0  0  0  0  0  0  0  0  0  0  0  0
   -3.6115   -3.3795  -20.6349 N   0  0  0  0  0  0  0  0  0  0  0  0
   -3.8360   -3.8263  -21.5290 H   0  0  0  0  0  0  0  0  0  0  0  0
   -4.8565   -3.4587  -19.5203 S   0  0  0  0  0  0  0  0  0  0  0  0
   -5.3940   -4.8022  -19.5024 O   0  0  0  0  0  0  0  0  0  0  0  0
   -5.7066   -2.3327  -19.8445 O   0  0  0  0  0  0  0  0  0  0  0  0
   -4.0675   -3.0856  -17.9434 C   0  0  0  0  0  0  0  0  0  0  0  0
   -5.6469   -3.1035  -15.9303 C   0  0  0  0  0  0  0  0  0  0  0  0
   -4.9159   -2.2704  -16.9699 C   0  0  0  0  0  0  0  0  0  0  0  0
    1.1804   -2.3186  -20.4706 C   0  0  0  0  0  0  0  0  0  0  0  0
    1.9050   -2.3307  -21.4657 O   0  0  0  0  0  0  0  0  0  0  0  0
    1.7095   -2.8172  -19.1402 C   0  0  0  0  0  0  0  0  0  0  0  0
    3.1503   -2.5018  -18.8294 C   0  0  0  0  0  0  0  0  0  0  0  0
    4.1539   -3.0390  -19.6526 C   0  0  0  0  0  0  0  0  0  0  0  0
    5.4950   -2.7300  -19.3647 C   0  0  0  0  0  0  0  0  0  0  0  0
    5.7313   -1.9122  -18.2675 C   0  0  0  0  0  0  0  0  0  0  0  0
    7.0839   -1.7589  -18.1323 N   0  0  0  0  0  0  0  0  0  0  0  0
    7.7434   -2.4304  -19.1380 C   0  0  0  0  0  0  0  0  0  0  0  0
    6.7680   -3.0266  -19.9113 C   0  0  0  0  0  0  0  0  0  0  0  0
    7.0269   -4.0707  -21.4527 Br  0  0  0  0  0  0  0  0  0  0  0  0
    9.2237   -2.4136  -19.2269 C   0  0  0  0  0  0  0  0  0  0  0  0
    4.8213   -1.3438  -17.4577 N   0  0  0  0  0  0  0  0  0  0  0  0
    3.5471   -1.6444  -17.8021 C   0  0  0  0  0  0  0  0  0  0  0  0
    7.5089   -1.2150  -17.3959 H   0  0  0  0  0  0  0  0  0  0  0  0
 15 16  1  0  0  0
 16 14  1  0  0  0
 14 11  1  0  0  0
 11 12  2  0  0  0
 11 13  2  0  0  0
 11  9  1  0  0  0
  9  1  1  0  0  0
  1  2  2  0  0  0
  2  3  1  0  0  0
  3  4  2  0  0  0
  4  5  1  0  0  0
  5  6  2  0  0  0
  1  6  1  0  0  0
  4  7  1  0  0  0
  3 17  1  0  0  0
 17 18  2  0  0  0
 17 19  1  0  0  0
 19 20  1  0  0  0
 20 21  2  0  0  0
 21 22  1  0  0  0
 22 23  2  0  0  0
 23 24  1  0  0  0
 24 25  1  0  0  0
 25 26  2  0  0  0
 22 26  1  0  0  0
 26 27  1  0  0  0
 25 28  1  0  0  0
 23 29  1  0  0  0
 29 30  2  0  0  0
 20 30  1  0  0  0
  2  8  1  0  0  0
  9 10  1  0  0  0
 24 31  1  0  0  0
M  END
> <minimizedAffinity>
-10.84365

$$$$
mol_58252053_10


 31 33  0  0  0  0  0  0  0  0999 V2000
    2.4097   -2.6535  -19.4439 C   0  0  0  0  0  0  0  0  0  0  0  0
    3.5364   -2.4535  -20.2559 C   0  0  0  0  0  0  0  0  0  0  0  0
    4.7895   -2.1395  -19.7139 C   0  0  0  0  0  0  0  0  0  0  0  0
    4.8893   -1.9970  -18.3329 C   0  0  0  0  0  0  0  0  0  0  0  0
    3.7941   -2.2489  -17.5090 C   0  0  0  0  0  0  0  0  0  0  0  0
    2.5700   -2.6281  -18.0635 C   0  0  0  0  0  0  0  0  0  0  0  0
    6.0402   -1.6499  -17.7446 F   0  0  0  0  0  0  0  0  0  0  0  0
    3.3634   -2.5312  -21.5863 F   0  0  0  0  0  0  0  0  0  0  0  0
    1.1720   -2.9632  -20.0839 N   0  0  0  0  0  0  0  0  0  0  0  0
    1.1444   -3.8189  -20.6464 H   0  0  0  0  0  0  0  0  0  0  0  0
    0.0327   -1.8276  -20.5437 S   0  0  0  0  0  0  0  0  0  0  0  0
    0.3740   -1.3148  -21.8531 O   0  0  0  0  0  0  0  0  0  0  0  0
   -0.0678   -0.9340  -19.4092 O   0  0  0  0  0  0  0  0  0  0  0  0
   -1.5119   -2.7528  -20.6234 C   0  0  0  0  0  0  0  0  0  0  0  0
   -3.7528   -2.2715  -19.4858 C   0  0  0  0  0  0  0  0  0  0  0  0
   -2.7801   -1.9025  -20.5934 C   0  0  0  0  0  0  0  0  0  0  0  0
    5.9586   -2.0076  -20.6231 C   0  0  0  0  0  0  0  0  0  0  0  0
    6.0000   -1.0501  -21.3957 O   0  0  0  0  0  0  0  0  0  0  0  0
    7.0707   -3.0379  -20.6308 C   0  0  0  0  0  0  0  0  0  0  0  0
    6.7949   -4.3185  -21.3765 C   0  0  0  0  0  0  0  0  0  0  0  0
    5.8473   -4.3078  -22.4134 C   0  0  0  0  0  0  0  0  0  0  0  0
    5.6046   -5.5027  -23.1134 C   0  0  0  0  0  0  0  0  0  0  0  0
    6.3237   -6.6223  -22.7162 C   0  0  0  0  0  0  0  0  0  0  0  0
    5.9248   -7.6812  -23.4850 N   0  0  0  0  0  0  0  0  0  0  0  0
    4.9825   -7.2758  -24.4042 C   0  0  0  0  0  0  0  0  0  0  0  0
    4.7848   -5.9270  -24.1881 C   0  0  0  0  0  0  0  0  0  0  0  0
    3.6311   -4.7861  -25.1371 Br  0  0  0  0  0  0  0  0  0  0  0  0
    4.3933   -8.2344  -25.3702 C   0  0  0  0  0  0  0  0  0  0  0  0
    7.2611   -6.6962  -21.7556 N   0  0  0  0  0  0  0  0  0  0  0  0
    7.4809   -5.5108  -21.1400 C   0  0  0  0  0  0  0  0  0  0  0  0
    6.2952   -8.6140  -23.3781 H   0  0  0  0  0  0  0  0  0  0  0  0
 15 16  1  0  0  0
 16 14  1  0  0  0
 14 11  1  0  0  0
 11 12  2  0  0  0
 11 13  2  0  0  0
 11  9  1  0  0  0
  9  1  1  0  0  0
  1  2  2  0  0  0
  2  3  1  0  0  0
  3  4  2  0  0  0
  4  5  1  0  0  0
  5  6  2  0  0  0
  1  6  1  0  0  0
  4  7  1  0  0  0
  3 17  1  0  0  0
 17 18  2  0  0  0
 17 19  1  0  0  0
 19 20  1  0  0  0
 20 21  2  0  0  0
 21 22  1  0  0  0
 22 23  2  0  0  0
 23 24  1  0  0  0
 24 25  1  0  0  0
 25 26  2  0  0  0
 22 26  1  0  0  0
 26 27  1  0  0  0
 25 28  1  0  0  0
 23 29  1  0  0  0
 29 30  2  0  0  0
 20 30  1  0  0  0
  2  8  1  0  0  0
  9 10  1  0  0  0
 24 31  1  0  0  0
M  END
> <minimizedAffinity>
-9.73408

$$$$
mol_58252053_10


 31 33  0  0  0  0  0  0  0  0999 V2000
   -1.9104   -2.9331  -20.7621 C   0  0  0  0  0  0  0  0  0  0  0  0
   -0.8776   -2.1469  -20.2290 C   0  0  0  0  0  0  0  0  0  0  0  0
    0.4685   -2.4000  -20.5230 C   0  0  0  0  0  0  0  0  0  0  0  0
    0.7678   -3.4840  -21.3432 C   0  0  0  0  0  0  0  0  0  0  0  0
   -0.2480   -4.2386  -21.9267 C   0  0  0  0  0  0  0  0  0  0  0  0
   -1.5863   -3.9283  -21.6766 C   0  0  0  0  0  0  0  0  0  0  0  0
    2.0313   -3.8195  -21.6296 F   0  0  0  0  0  0  0  0  0  0  0  0
   -1.2225   -1.1601  -19.3845 F   0  0  0  0  0  0  0  0  0  0  0  0
   -3.2524   -2.6058  -20.4022 N   0  0  0  0  0  0  0  0  0  0  0  0
   -3.5242   -1.6212  -20.4800 H   0  0  0  0  0  0  0  0  0  0  0  0
   -4.1758   -3.4665  -19.3045 S   0  0  0  0  0  0  0  0  0  0  0  0
   -3.3006   -4.2388  -18.4491 O   0  0  0  0  0  0  0  0  0  0  0  0
   -5.1804   -4.1251  -20.1123 O   0  0  0  0  0  0  0  0  0  0  0  0
   -5.0219   -2.1986  -18.3428 C   0  0  0  0  0  0  0  0  0  0  0  0
   -5.5700   -3.0625  -15.9974 C   0  0  0  0  0  0  0  0  0  0  0  0
   -4.6807   -2.1771  -16.8544 C   0  0  0  0  0  0  0  0  0  0  0  0
    1.5110   -1.4885  -19.9816 C   0  0  0  0  0  0  0  0  0  0  0  0
    1.8515   -0.5157  -20.6547 O   0  0  0  0  0  0  0  0  0  0  0  0
    2.1713   -1.7539  -18.6429 C   0  0  0  0  0  0  0  0  0  0  0  0
    3.6689   -1.9242  -18.6546 C   0  0  0  0  0  0  0  0  0  0  0  0
    4.2612   -2.6377  -19.7098 C   0  0  0  0  0  0  0  0  0  0  0  0
    5.6598   -2.7815  -19.7212 C   0  0  0  0  0  0  0  0  0  0  0  0
    6.3605   -2.2067  -18.6691 C   0  0  0  0  0  0  0  0  0  0  0  0
    7.6894   -2.4834  -18.8391 N   0  0  0  0  0  0  0  0  0  0  0  0
    7.8834   -3.1993  -19.9997 C   0  0  0  0  0  0  0  0  0  0  0  0
    6.6340   -3.3803  -20.5575 C   0  0  0  0  0  0  0  0  0  0  0  0
    6.2302   -4.2660  -22.1655 Br  0  0  0  0  0  0  0  0  0  0  0  0
    9.2418   -3.6174  -20.4232 C   0  0  0  0  0  0  0  0  0  0  0  0
    5.8622   -1.4902  -17.6466 N   0  0  0  0  0  0  0  0  0  0  0  0
    4.5169   -1.3520  -17.7051 C   0  0  0  0  0  0  0  0  0  0  0  0
    8.4049   -2.1823  -18.1940 H   0  0  0  0  0  0  0  0  0  0  0  0
 15 16  1  0  0  0
 16 14  1  0  0  0
 14 11  1  0  0  0
 11 12  2  0  0  0
 11 13  2  0  0  0
 11  9  1  0  0  0
  9  1  1  0  0  0
  1  2  2  0  0  0
  2  3  1  0  0  0
  3  4  2  0  0  0
  4  5  1  0  0  0
  5  6  2  0  0  0
  1  6  1  0  0  0
  4  7  1  0  0  0
  3 17  1  0  0  0
 17 18  2  0  0  0
 17 19  1  0  0  0
 19 20  1  0  0  0
 20 21  2  0  0  0
 21 22  1  0  0  0
 22 23  2  0  0  0
 23 24  1  0  0  0
 24 25  1  0  0  0
 25 26  2  0  0  0
 22 26  1  0  0  0
 26 27  1  0  0  0
 25 28  1  0  0  0
 23 29  1  0  0  0
 29 30  2  0  0  0
 20 30  1  0  0  0
  2  8  1  0  0  0
  9 10  1  0  0  0
 24 31  1  0  0  0
M  END
> <minimizedAffinity>
-9.67372

$$$$
mol_58251992_11


 31 33  0  0  0  0  0  0  0  0999 V2000
   -2.4665   -2.3294  -20.6984 C   0  0  0  0  0  0  0  0  0  0  0  0
   -1.1282   -2.7402  -20.6141 C   0  0  0  0  0  0  0  0  0  0  0  0
   -0.0739   -1.8188  -20.6143 C   0  0  0  0  0  0  0  0  0  0  0  0
   -0.3835   -0.4667  -20.7274 C   0  0  0  0  0  0  0  0  0  0  0  0
   -1.7101   -0.0389  -20.7517 C   0  0  0  0  0  0  0  0  0  0  0  0
   -2.7503   -0.9688  -20.6870 C   0  0  0  0  0  0  0  0  0  0  0  0
    0.5720    0.4683  -20.7861 F   0  0  0  0  0  0  0  0  0  0  0  0
   -0.8856   -4.0616  -20.5850 F   0  0  0  0  0  0  0  0  0  0  0  0
   -3.4745   -3.3400  -20.7111 N   0  0  0  0  0  0  0  0  0  0  0  0
   -3.6535   -3.7976  -21.6101 H   0  0  0  0  0  0  0  0  0  0  0  0
   -4.8022   -3.3504  -19.6914 S   0  0  0  0  0  0  0  0  0  0  0  0
   -5.3142   -4.7004  -19.5971 O   0  0  0  0  0  0  0  0  0  0  0  0
   -5.6436   -2.2782  -20.1794 O   0  0  0  0  0  0  0  0  0  0  0  0
   -4.1458   -2.8233  -18.0970 C   0  0  0  0  0  0  0  0  0  0  0  0
   -5.4770   -3.0555  -15.9246 C   0  0  0  0  0  0  0  0  0  0  0  0
   -5.1717   -2.2074  -17.1480 C   0  0  0  0  0  0  0  0  0  0  0  0
    1.3181   -2.3190  -20.4734 C   0  0  0  0  0  0  0  0  0  0  0  0
    2.0175   -2.3990  -21.4835 O   0  0  0  0  0  0  0  0  0  0  0  0
    1.8669   -2.7568  -19.1307 C   0  0  0  0  0  0  0  0  0  0  0  0
    3.3187   -2.4633  -18.8484 C   0  0  0  0  0  0  0  0  0  0  0  0
    4.2871   -2.9807  -19.7263 C   0  0  0  0  0  0  0  0  0  0  0  0
    5.6431   -2.7059  -19.4759 C   0  0  0  0  0  0  0  0  0  0  0  0
    5.9295   -1.9537  -18.3459 C   0  0  0  0  0  0  0  0  0  0  0  0
    7.2856   -1.8359  -18.2531 N   0  0  0  0  0  0  0  0  0  0  0  0
    7.8908   -2.4541  -19.3219 C   0  0  0  0  0  0  0  0  0  0  0  0
    6.8890   -2.9955  -20.1190 C   0  0  0  0  0  0  0  0  0  0  0  0
    7.0806   -3.7211  -21.4040 C   0  0  0  0  0  0  0  0  0  0  0  0
    9.3688   -2.4502  -19.4666 C   0  0  0  0  0  0  0  0  0  0  0  0
    5.0594   -1.4119  -17.4762 N   0  0  0  0  0  0  0  0  0  0  0  0
    3.7689   -1.6691  -17.7936 C   0  0  0  0  0  0  0  0  0  0  0  0
    7.7495   -1.3430  -17.5051 H   0  0  0  0  0  0  0  0  0  0  0  0
 15 16  1  0  0  0
 16 14  1  0  0  0
 14 11  1  0  0  0
 11 12  2  0  0  0
 11 13  2  0  0  0
 11  9  1  0  0  0
  9  1  1  0  0  0
  1  2  2  0  0  0
  2  3  1  0  0  0
  3  4  2  0  0  0
  4  5  1  0  0  0
  5  6  2  0  0  0
  1  6  1  0  0  0
  4  7  1  0  0  0
  3 17  1  0  0  0
 17 18  2  0  0  0
 17 19  1  0  0  0
 19 20  1  0  0  0
 20 21  2  0  0  0
 21 22  1  0  0  0
 22 23  2  0  0  0
 23 24  1  0  0  0
 24 25  1  0  0  0
 25 26  2  0  0  0
 22 26  1  0  0  0
 26 27  1  0  0  0
 25 28  1  0  0  0
 23 29  1  0  0  0
 29 30  2  0  0  0
 20 30  1  0  0  0
  2  8  1  0  0  0
  9 10  1  0  0  0
 24 31  1  0  0  0
M  END
> <minimizedAffinity>
-11.10394

$$$$
mol_58251992_11


 31 33  0  0  0  0  0  0  0  0999 V2000
    1.5014   -4.1360  -23.2096 C   0  0  0  0  0  0  0  0  0  0  0  0
    1.9467   -3.2559  -22.2126 C   0  0  0  0  0  0  0  0  0  0  0  0
    1.1461   -2.9231  -21.1132 C   0  0  0  0  0  0  0  0  0  0  0  0
   -0.1309   -3.4717  -21.0408 C   0  0  0  0  0  0  0  0  0  0  0  0
   -0.5654   -4.3940  -21.9916 C   0  0  0  0  0  0  0  0  0  0  0  0
    0.2711   -4.7623  -23.0478 C   0  0  0  0  0  0  0  0  0  0  0  0
   -0.9718   -3.1605  -20.0474 F   0  0  0  0  0  0  0  0  0  0  0  0
    3.1578   -2.6967  -22.3748 F   0  0  0  0  0  0  0  0  0  0  0  0
    2.3781   -4.4022  -24.3042 N   0  0  0  0  0  0  0  0  0  0  0  0
    2.1952   -3.8908  -25.1729 H   0  0  0  0  0  0  0  0  0  0  0  0
    3.1458   -5.8689  -24.5531 S   0  0  0  0  0  0  0  0  0  0  0  0
    2.2082   -6.7975  -25.1465 O   0  0  0  0  0  0  0  0  0  0  0  0
    3.7745   -6.1700  -23.2843 O   0  0  0  0  0  0  0  0  0  0  0  0
    4.4664   -5.4900  -25.7207 C   0  0  0  0  0  0  0  0  0  0  0  0
    5.6465   -3.3411  -24.9890 C   0  0  0  0  0  0  0  0  0  0  0  0
    4.6967   -4.0016  -25.9744 C   0  0  0  0  0  0  0  0  0  0  0  0
    1.6981   -2.0224  -20.0682 C   0  0  0  0  0  0  0  0  0  0  0  0
    1.6275   -0.8062  -20.2455 O   0  0  0  0  0  0  0  0  0  0  0  0
    2.3662   -2.5732  -18.8247 C   0  0  0  0  0  0  0  0  0  0  0  0
    3.8641   -2.4327  -18.7251 C   0  0  0  0  0  0  0  0  0  0  0  0
    4.6608   -3.0881  -19.6800 C   0  0  0  0  0  0  0  0  0  0  0  0
    6.0585   -2.9568  -19.6001 C   0  0  0  0  0  0  0  0  0  0  0  0
    6.5553   -2.1983  -18.5501 C   0  0  0  0  0  0  0  0  0  0  0  0
    7.9176   -2.2289  -18.6186 N   0  0  0  0  0  0  0  0  0  0  0  0
    8.3225   -2.9513  -19.7163 C   0  0  0  0  0  0  0  0  0  0  0  0
    7.1812   -3.4080  -20.3653 C   0  0  0  0  0  0  0  0  0  0  0  0
    7.1407   -4.1993  -21.6249 C   0  0  0  0  0  0  0  0  0  0  0  0
    9.7648   -3.1177  -20.0285 C   0  0  0  0  0  0  0  0  0  0  0  0
    5.8573   -1.5298  -17.6158 N   0  0  0  0  0  0  0  0  0  0  0  0
    4.5182   -1.6536  -17.7706 C   0  0  0  0  0  0  0  0  0  0  0  0
    8.5169   -1.7623  -17.9546 H   0  0  0  0  0  0  0  0  0  0  0  0
 15 16  1  0  0  0
 16 14  1  0  0  0
 14 11  1  0  0  0
 11 12  2  0  0  0
 11 13  2  0  0  0
 11  9  1  0  0  0
  9  1  1  0  0  0
  1  2  2  0  0  0
  2  3  1  0  0  0
  3  4  2  0  0  0
  4  5  1  0  0  0
  5  6  2  0  0  0
  1  6  1  0  0  0
  4  7  1  0  0  0
  3 17  1  0  0  0
 17 18  2  0  0  0
 17 19  1  0  0  0
 19 20  1  0  0  0
 20 21  2  0  0  0
 21 22  1  0  0  0
 22 23  2  0  0  0
 23 24  1  0  0  0
 24 25  1  0  0  0
 25 26  2  0  0  0
 22 26  1  0  0  0
 26 27  1  0  0  0
 25 28  1  0  0  0
 23 29  1  0  0  0
 29 30  2  0  0  0
 20 30  1  0  0  0
  2  8  1  0  0  0
  9 10  1  0  0  0
 24 31  1  0  0  0
M  END
> <minimizedAffinity>
-9.76865

$$$$
mol_58251992_11


 31 33  0  0  0  0  0  0  0  0999 V2000
    2.3988   -2.5155  -19.3879 C   0  0  0  0  0  0  0  0  0  0  0  0
    3.5210   -2.4029  -20.2214 C   0  0  0  0  0  0  0  0  0  0  0  0
    4.7934   -2.1219  -19.7089 C   0  0  0  0  0  0  0  0  0  0  0  0
    4.9205   -1.9280  -18.3366 C   0  0  0  0  0  0  0  0  0  0  0  0
    3.8266   -2.0955  -17.4888 C   0  0  0  0  0  0  0  0  0  0  0  0
    2.5774   -2.4380  -18.0117 C   0  0  0  0  0  0  0  0  0  0  0  0
    6.0941   -1.6059  -17.7803 F   0  0  0  0  0  0  0  0  0  0  0  0
    3.3249   -2.5232  -21.5453 F   0  0  0  0  0  0  0  0  0  0  0  0
    1.1378   -2.7848  -20.0003 N   0  0  0  0  0  0  0  0  0  0  0  0
    1.0618   -3.6600  -20.5274 H   0  0  0  0  0  0  0  0  0  0  0  0
    0.0869   -1.5985  -20.5395 S   0  0  0  0  0  0  0  0  0  0  0  0
    0.4137   -1.2654  -21.9091 O   0  0  0  0  0  0  0  0  0  0  0  0
    0.1243   -0.5835  -19.5078 O   0  0  0  0  0  0  0  0  0  0  0  0
   -1.5397   -2.3724  -20.4608 C   0  0  0  0  0  0  0  0  0  0  0  0
   -4.0623   -2.1369  -20.8162 C   0  0  0  0  0  0  0  0  0  0  0  0
   -2.7134   -1.4400  -20.7535 C   0  0  0  0  0  0  0  0  0  0  0  0
    5.9479   -2.0643  -20.6425 C   0  0  0  0  0  0  0  0  0  0  0  0
    5.9907   -1.1504  -21.4664 O   0  0  0  0  0  0  0  0  0  0  0  0
    7.0368   -3.1176  -20.6164 C   0  0  0  0  0  0  0  0  0  0  0  0
    6.7862   -4.3899  -21.3860 C   0  0  0  0  0  0  0  0  0  0  0  0
    5.7830   -4.3875  -22.3708 C   0  0  0  0  0  0  0  0  0  0  0  0
    5.5472   -5.5669  -23.0992 C   0  0  0  0  0  0  0  0  0  0  0  0
    6.3183   -6.6710  -22.7664 C   0  0  0  0  0  0  0  0  0  0  0  0
    5.9123   -7.7159  -23.5442 N   0  0  0  0  0  0  0  0  0  0  0  0
    4.9253   -7.3084  -24.4105 C   0  0  0  0  0  0  0  0  0  0  0  0
    4.6837   -5.9606  -24.1711 C   0  0  0  0  0  0  0  0  0  0  0  0
    3.7221   -5.0937  -24.9047 C   0  0  0  0  0  0  0  0  0  0  0  0
    4.3262   -8.2577  -25.3827 C   0  0  0  0  0  0  0  0  0  0  0  0
    7.3038   -6.7416  -21.8548 N   0  0  0  0  0  0  0  0  0  0  0  0
    7.5179   -5.5658  -21.2192 C   0  0  0  0  0  0  0  0  0  0  0  0
    6.3112   -8.6405  -23.4831 H   0  0  0  0  0  0  0  0  0  0  0  0
 15 16  1  0  0  0
 16 14  1  0  0  0
 14 11  1  0  0  0
 11 12  2  0  0  0
 11 13  2  0  0  0
 11  9  1  0  0  0
  9  1  1  0  0  0
  1  2  2  0  0  0
  2  3  1  0  0  0
  3  4  2  0  0  0
  4  5  1  0  0  0
  5  6  2  0  0  0
  1  6  1  0  0  0
  4  7  1  0  0  0
  3 17  1  0  0  0
 17 18  2  0  0  0
 17 19  1  0  0  0
 19 20  1  0  0  0
 20 21  2  0  0  0
 21 22  1  0  0  0
 22 23  2  0  0  0
 23 24  1  0  0  0
 24 25  1  0  0  0
 25 26  2  0  0  0
 22 26  1  0  0  0
 26 27  1  0  0  0
 25 28  1  0  0  0
 23 29  1  0  0  0
 29 30  2  0  0  0
 20 30  1  0  0  0
  2  8  1  0  0  0
  9 10  1  0  0  0
 24 31  1  0  0  0
M  END
> <minimizedAffinity>
-9.76478

$$$$
mol_58252033_12


 31 33  0  0  0  0  0  0  0  0999 V2000
    6.2225   -2.6234  -19.7794 C   0  0  0  0  0  0  0  0  0  0  0  0
    5.1039   -2.5971  -20.6247 C   0  0  0  0  0  0  0  0  0  0  0  0
    3.8039   -2.7380  -20.1322 C   0  0  0  0  0  0  0  0  0  0  0  0
    3.6495   -2.9572  -18.7653 C   0  0  0  0  0  0  0  0  0  0  0  0
    4.7526   -2.9613  -17.9064 C   0  0  0  0  0  0  0  0  0  0  0  0
    6.0394   -2.7485  -18.4087 C   0  0  0  0  0  0  0  0  0  0  0  0
    2.4410   -3.1257  -18.2150 F   0  0  0  0  0  0  0  0  0  0  0  0
    5.3349   -2.4516  -21.9404 F   0  0  0  0  0  0  0  0  0  0  0  0
    7.4992   -2.4482  -20.3860 N   0  0  0  0  0  0  0  0  0  0  0  0
    7.4882   -2.0455  -21.3282 H   0  0  0  0  0  0  0  0  0  0  0  0
    8.7726   -3.5090  -20.1840 S   0  0  0  0  0  0  0  0  0  0  0  0
    9.4145   -3.2101  -18.9212 O   0  0  0  0  0  0  0  0  0  0  0  0
    9.5085   -3.4145  -21.4269 O   0  0  0  0  0  0  0  0  0  0  0  0
    8.0378   -5.1574  -20.1238 C   0  0  0  0  0  0  0  0  0  0  0  0
    6.7329   -5.5057  -22.2991 C   0  0  0  0  0  0  0  0  0  0  0  0
    7.9576   -5.8668  -21.4754 C   0  0  0  0  0  0  0  0  0  0  0  0
    2.6624   -2.5711  -21.0712 C   0  0  0  0  0  0  0  0  0  0  0  0
    2.5632   -3.3381  -22.0299 O   0  0  0  0  0  0  0  0  0  0  0  0
    1.6375   -1.4714  -20.8756 C   0  0  0  0  0  0  0  0  0  0  0  0
    0.2330   -1.9936  -20.7753 C   0  0  0  0  0  0  0  0  0  0  0  0
   -0.0185   -3.3315  -20.4711 C   0  0  0  0  0  0  0  0  0  0  0  0
   -1.2365   -3.9150  -20.3971 N   0  0  0  0  0  0  0  0  0  0  0  0
   -2.2422   -3.0539  -20.6319 C   0  0  0  0  0  0  0  0  0  0  0  0
   -2.1479   -1.6985  -20.9178 C   0  0  0  0  0  0  0  0  0  0  0  0
   -0.8624   -1.1420  -20.9845 C   0  0  0  0  0  0  0  0  0  0  0  0
   -3.4743   -1.2179  -21.0788 C   0  0  0  0  0  0  0  0  0  0  0  0
   -4.3378   -2.2858  -20.9079 C   0  0  0  0  0  0  0  0  0  0  0  0
   -3.5666   -3.3910  -20.6265 N   0  0  0  0  0  0  0  0  0  0  0  0
   -3.9002   -4.3266  -20.4489 H   0  0  0  0  0  0  0  0  0  0  0  0
   -5.8257   -2.3545  -20.9727 C   0  0  0  0  0  0  0  0  0  0  0  0
   -6.3507   -2.0258  -22.3617 C   0  0  0  0  0  0  0  0  0  0  0  0
 15 16  1  0  0  0
 16 14  1  0  0  0
 14 11  1  0  0  0
 11 12  2  0  0  0
 11 13  2  0  0  0
 11  9  1  0  0  0
  9  1  1  0  0  0
  1  2  2  0  0  0
  2  3  1  0  0  0
  3  4  2  0  0  0
  4  5  1  0  0  0
  5  6  2  0  0  0
  1  6  1  0  0  0
  4  7  1  0  0  0
  3 17  1  0  0  0
 17 18  2  0  0  0
 17 19  1  0  0  0
 19 20  1  0  0  0
 20 21  2  0  0  0
 21 22  1  0  0  0
 22 23  2  0  0  0
 23 24  1  0  0  0
 24 25  2  0  0  0
 20 25  1  0  0  0
 24 26  1  0  0  0
 26 27  2  0  0  0
 27 28  1  0  0  0
 23 28  1  0  0  0
 27 30  1  0  0  0
 30 31  1  0  0  0
  2  8  1  0  0  0
  9 10  1  0  0  0
 28 29  1  0  0  0
M  END
> <minimizedAffinity>
-9.57051

$$$$
mol_58252033_12


 31 33  0  0  0  0  0  0  0  0999 V2000
    6.3665   -2.5244  -19.7653 C   0  0  0  0  0  0  0  0  0  0  0  0
    5.2381   -2.4800  -20.5966 C   0  0  0  0  0  0  0  0  0  0  0  0
    3.9453   -2.6515  -20.0950 C   0  0  0  0  0  0  0  0  0  0  0  0
    3.8087   -2.9201  -18.7350 C   0  0  0  0  0  0  0  0  0  0  0  0
    4.9216   -2.9429  -17.8892 C   0  0  0  0  0  0  0  0  0  0  0  0
    6.2004   -2.6994  -18.3979 C   0  0  0  0  0  0  0  0  0  0  0  0
    2.6083   -3.1202  -18.1776 F   0  0  0  0  0  0  0  0  0  0  0  0
    5.4524   -2.2861  -21.9089 F   0  0  0  0  0  0  0  0  0  0  0  0
    7.6343   -2.3148  -20.3795 N   0  0  0  0  0  0  0  0  0  0  0  0
    7.6958   -1.4992  -20.9967 H   0  0  0  0  0  0  0  0  0  0  0  0
    8.6287   -3.5535  -20.8940 S   0  0  0  0  0  0  0  0  0  0  0  0
    8.0267   -4.1617  -22.0617 O   0  0  0  0  0  0  0  0  0  0  0  0
    8.8681   -4.3313  -19.6969 O   0  0  0  0  0  0  0  0  0  0  0  0
   10.1943   -2.7753  -21.3458 C   0  0  0  0  0  0  0  0  0  0  0  0
   11.1721   -1.3863  -19.4299 C   0  0  0  0  0  0  0  0  0  0  0  0
   10.4101   -1.3867  -20.7445 C   0  0  0  0  0  0  0  0  0  0  0  0
    2.7915   -2.4635  -21.0148 C   0  0  0  0  0  0  0  0  0  0  0  0
    2.6941   -3.1910  -22.0039 O   0  0  0  0  0  0  0  0  0  0  0  0
    1.7517   -1.3895  -20.7629 C   0  0  0  0  0  0  0  0  0  0  0  0
    0.3545   -1.9353  -20.6898 C   0  0  0  0  0  0  0  0  0  0  0  0
    0.1199   -3.2782  -20.3943 C   0  0  0  0  0  0  0  0  0  0  0  0
   -1.0893   -3.8821  -20.3444 N   0  0  0  0  0  0  0  0  0  0  0  0
   -2.1048   -3.0371  -20.5949 C   0  0  0  0  0  0  0  0  0  0  0  0
   -2.0280   -1.6794  -20.8749 C   0  0  0  0  0  0  0  0  0  0  0  0
   -0.7509   -1.1014  -20.9165 C   0  0  0  0  0  0  0  0  0  0  0  0
   -3.3591   -1.2204  -21.0588 C   0  0  0  0  0  0  0  0  0  0  0  0
   -4.2076   -2.3031  -20.9069 C   0  0  0  0  0  0  0  0  0  0  0  0
   -3.4233   -3.3962  -20.6147 N   0  0  0  0  0  0  0  0  0  0  0  0
   -3.7444   -4.3378  -20.4461 H   0  0  0  0  0  0  0  0  0  0  0  0
   -5.6927   -2.3963  -20.9991 C   0  0  0  0  0  0  0  0  0  0  0  0
   -6.2055   -1.9752  -22.3676 C   0  0  0  0  0  0  0  0  0  0  0  0
 15 16  1  0  0  0
 16 14  1  0  0  0
 14 11  1  0  0  0
 11 12  2  0  0  0
 11 13  2  0  0  0
 11  9  1  0  0  0
  9  1  1  0  0  0
  1  2  2  0  0  0
  2  3  1  0  0  0
  3  4  2  0  0  0
  4  5  1  0  0  0
  5  6  2  0  0  0
  1  6  1  0  0  0
  4  7  1  0  0  0
  3 17  1  0  0  0
 17 18  2  0  0  0
 17 19  1  0  0  0
 19 20  1  0  0  0
 20 21  2  0  0  0
 21 22  1  0  0  0
 22 23  2  0  0  0
 23 24  1  0  0  0
 24 25  2  0  0  0
 20 25  1  0  0  0
 24 26  1  0  0  0
 26 27  2  0  0  0
 27 28  1  0  0  0
 23 28  1  0  0  0
 27 30  1  0  0  0
 30 31  1  0  0  0
  2  8  1  0  0  0
  9 10  1  0  0  0
 28 29  1  0  0  0
M  END
> <minimizedAffinity>
-9.37844

$$$$
mol_58252033_12


 31 33  0  0  0  0  0  0  0  0999 V2000
    6.4984   -5.0918  -23.1082 C   0  0  0  0  0  0  0  0  0  0  0  0
    6.2000   -4.0962  -22.1667 C   0  0  0  0  0  0  0  0  0  0  0  0
    6.7415   -4.1131  -20.8787 C   0  0  0  0  0  0  0  0  0  0  0  0
    7.5592   -5.1869  -20.5340 C   0  0  0  0  0  0  0  0  0  0  0  0
    7.8858   -6.1737  -21.4688 C   0  0  0  0  0  0  0  0  0  0  0  0
    7.3905   -6.1020  -22.7738 C   0  0  0  0  0  0  0  0  0  0  0  0
    8.0998   -5.2923  -19.3140 F   0  0  0  0  0  0  0  0  0  0  0  0
    5.3485   -3.1293  -22.5481 F   0  0  0  0  0  0  0  0  0  0  0  0
    5.9081   -4.9637  -24.3980 N   0  0  0  0  0  0  0  0  0  0  0  0
    5.9958   -4.0403  -24.8333 H   0  0  0  0  0  0  0  0  0  0  0  0
    4.4910   -5.7244  -24.8462 S   0  0  0  0  0  0  0  0  0  0  0  0
    4.2169   -6.7726  -23.8859 O   0  0  0  0  0  0  0  0  0  0  0  0
    4.6886   -6.0382  -26.2454 O   0  0  0  0  0  0  0  0  0  0  0  0
    3.2034   -4.4614  -24.7601 C   0  0  0  0  0  0  0  0  0  0  0  0
    1.1300   -4.9540  -23.3407 C   0  0  0  0  0  0  0  0  0  0  0  0
    2.5200   -4.3429  -23.3979 C   0  0  0  0  0  0  0  0  0  0  0  0
    6.4818   -2.9570  -19.9796 C   0  0  0  0  0  0  0  0  0  0  0  0
    6.9519   -1.8571  -20.2733 O   0  0  0  0  0  0  0  0  0  0  0  0
    5.6672   -3.1149  -18.7108 C   0  0  0  0  0  0  0  0  0  0  0  0
    4.2864   -2.5361  -18.8279 C   0  0  0  0  0  0  0  0  0  0  0  0
    3.6504   -1.9607  -17.7278 C   0  0  0  0  0  0  0  0  0  0  0  0
    2.3981   -1.4500  -17.7103 N   0  0  0  0  0  0  0  0  0  0  0  0
    1.7878   -1.5252  -18.9061 C   0  0  0  0  0  0  0  0  0  0  0  0
    2.3009   -2.0414  -20.0884 C   0  0  0  0  0  0  0  0  0  0  0  0
    3.6033   -2.5601  -20.0533 C   0  0  0  0  0  0  0  0  0  0  0  0
    1.2905   -1.8941  -21.0753 C   0  0  0  0  0  0  0  0  0  0  0  0
    0.1879   -1.3142  -20.4726 C   0  0  0  0  0  0  0  0  0  0  0  0
    0.5167   -1.0889  -19.1549 N   0  0  0  0  0  0  0  0  0  0  0  0
   -0.0755   -0.6748  -18.4505 H   0  0  0  0  0  0  0  0  0  0  0  0
   -1.1430   -0.9412  -21.0314 C   0  0  0  0  0  0  0  0  0  0  0  0
   -2.2681   -1.7587  -20.4158 C   0  0  0  0  0  0  0  0  0  0  0  0
 15 16  1  0  0  0
 16 14  1  0  0  0
 14 11  1  0  0  0
 11 12  2  0  0  0
 11 13  2  0  0  0
 11  9  1  0  0  0
  9  1  1  0  0  0
  1  2  2  0  0  0
  2  3  1  0  0  0
  3  4  2  0  0  0
  4  5  1  0  0  0
  5  6  2  0  0  0
  1  6  1  0  0  0
  4  7  1  0  0  0
  3 17  1  0  0  0
 17 18  2  0  0  0
 17 19  1  0  0  0
 19 20  1  0  0  0
 20 21  2  0  0  0
 21 22  1  0  0  0
 22 23  2  0  0  0
 23 24  1  0  0  0
 24 25  2  0  0  0
 20 25  1  0  0  0
 24 26  1  0  0  0
 26 27  2  0  0  0
 27 28  1  0  0  0
 23 28  1  0  0  0
 27 30  1  0  0  0
 30 31  1  0  0  0
  2  8  1  0  0  0
  9 10  1  0  0  0
 28 29  1  0  0  0
M  END
> <minimizedAffinity>
-9.21619

$$$$
mol_58252007_13


 30 32  0  0  0  0  0  0  0  0999 V2000
    2.1083   -2.7612  -19.5681 C   0  0  0  0  0  0  0  0  0  0  0  0
    3.1946   -2.5556  -20.4314 C   0  0  0  0  0  0  0  0  0  0  0  0
    4.5130   -2.5391  -19.9692 C   0  0  0  0  0  0  0  0  0  0  0  0
    4.7185   -2.6962  -18.6000 C   0  0  0  0  0  0  0  0  0  0  0  0
    3.6468   -2.9111  -17.7272 C   0  0  0  0  0  0  0  0  0  0  0  0
    2.3405   -2.9855  -18.2175 C   0  0  0  0  0  0  0  0  0  0  0  0
    5.9483   -2.7017  -18.0724 F   0  0  0  0  0  0  0  0  0  0  0  0
    2.9128   -2.3563  -21.7300 F   0  0  0  0  0  0  0  0  0  0  0  0
    0.8111   -2.7956  -20.1549 N   0  0  0  0  0  0  0  0  0  0  0  0
    0.6831   -3.4904  -20.8970 H   0  0  0  0  0  0  0  0  0  0  0  0
   -0.1171   -1.4344  -20.4245 S   0  0  0  0  0  0  0  0  0  0  0  0
    0.0385   -1.0494  -21.8119 O   0  0  0  0  0  0  0  0  0  0  0  0
    0.2669   -0.5317  -19.3607 O   0  0  0  0  0  0  0  0  0  0  0  0
   -1.8250   -1.9311  -20.1135 C   0  0  0  0  0  0  0  0  0  0  0  0
   -4.1910   -1.8894  -21.0897 C   0  0  0  0  0  0  0  0  0  0  0  0
   -2.8659   -1.1632  -20.9277 C   0  0  0  0  0  0  0  0  0  0  0  0
    5.6160   -2.4262  -20.9634 C   0  0  0  0  0  0  0  0  0  0  0  0
    6.1375   -1.3268  -21.1535 O   0  0  0  0  0  0  0  0  0  0  0  0
    6.1017   -3.6317  -21.7444 C   0  0  0  0  0  0  0  0  0  0  0  0
    5.3380   -3.8396  -23.0200 C   0  0  0  0  0  0  0  0  0  0  0  0
    4.6566   -5.0388  -23.2571 C   0  0  0  0  0  0  0  0  0  0  0  0
    4.0714   -5.2286  -24.5178 C   0  0  0  0  0  0  0  0  0  0  0  0
    4.1540   -4.1740  -25.4183 C   0  0  0  0  0  0  0  0  0  0  0  0
    3.5305   -4.5596  -26.5707 N   0  0  0  0  0  0  0  0  0  0  0  0
    3.0823   -5.8502  -26.4469 C   0  0  0  0  0  0  0  0  0  0  0  0
    3.3963   -6.3013  -25.1763 C   0  0  0  0  0  0  0  0  0  0  0  0
    3.1153   -7.6532  -24.6274 C   0  0  0  0  0  0  0  0  0  0  0  0
    4.7426   -2.9790  -25.2328 N   0  0  0  0  0  0  0  0  0  0  0  0
    5.3263   -2.8630  -24.0179 C   0  0  0  0  0  0  0  0  0  0  0  0
    3.4508   -3.9698  -27.3857 H   0  0  0  0  0  0  0  0  0  0  0  0
 15 16  1  0  0  0
 16 14  1  0  0  0
 14 11  1  0  0  0
 11 12  2  0  0  0
 11 13  2  0  0  0
 11  9  1  0  0  0
  9  1  1  0  0  0
  1  2  2  0  0  0
  2  3  1  0  0  0
  3  4  2  0  0  0
  4  5  1  0  0  0
  5  6  2  0  0  0
  1  6  1  0  0  0
  4  7  1  0  0  0
  3 17  1  0  0  0
 17 18  2  0  0  0
 17 19  1  0  0  0
 19 20  1  0  0  0
 20 21  2  0  0  0
 21 22  1  0  0  0
 22 23  2  0  0  0
 23 24  1  0  0  0
 24 25  1  0  0  0
 25 26  2  0  0  0
 22 26  1  0  0  0
 26 27  1  0  0  0
 23 28  1  0  0  0
 28 29  2  0  0  0
 20 29  1  0  0  0
  2  8  1  0  0  0
  9 10  1  0  0  0
 24 30  1  0  0  0
M  END
> <minimizedAffinity>
-8.98142

$$$$
mol_58252007_13


 30 32  0  0  0  0  0  0  0  0999 V2000
    2.3813   -2.5894  -19.4090 C   0  0  0  0  0  0  0  0  0  0  0  0
    3.4988   -2.3614  -20.2255 C   0  0  0  0  0  0  0  0  0  0  0  0
    4.7465   -2.0260  -19.6937 C   0  0  0  0  0  0  0  0  0  0  0  0
    4.8412   -1.8842  -18.3107 C   0  0  0  0  0  0  0  0  0  0  0  0
    3.7386   -2.1169  -17.4820 C   0  0  0  0  0  0  0  0  0  0  0  0
    2.5147   -2.5114  -18.0290 C   0  0  0  0  0  0  0  0  0  0  0  0
    5.9990   -1.5735  -17.7161 F   0  0  0  0  0  0  0  0  0  0  0  0
    3.3155   -2.4625  -21.5528 F   0  0  0  0  0  0  0  0  0  0  0  0
    1.1693   -2.9617  -20.0576 N   0  0  0  0  0  0  0  0  0  0  0  0
    1.2457   -3.7431  -20.7161 H   0  0  0  0  0  0  0  0  0  0  0  0
    0.0058   -1.8662  -20.5406 S   0  0  0  0  0  0  0  0  0  0  0  0
    0.3491   -1.3988  -21.8676 O   0  0  0  0  0  0  0  0  0  0  0  0
   -0.0852   -0.9400  -19.4325 O   0  0  0  0  0  0  0  0  0  0  0  0
   -1.5467   -2.7864  -20.5969 C   0  0  0  0  0  0  0  0  0  0  0  0
   -3.8010   -2.2643  -19.5024 C   0  0  0  0  0  0  0  0  0  0  0  0
   -2.8009   -1.9131  -20.5913 C   0  0  0  0  0  0  0  0  0  0  0  0
    5.9080   -1.9091  -20.6184 C   0  0  0  0  0  0  0  0  0  0  0  0
    5.9476   -0.9666  -21.4102 O   0  0  0  0  0  0  0  0  0  0  0  0
    7.0326   -2.9261  -20.6061 C   0  0  0  0  0  0  0  0  0  0  0  0
    6.7310   -4.1312  -21.4489 C   0  0  0  0  0  0  0  0  0  0  0  0
    5.7552   -4.0760  -22.4506 C   0  0  0  0  0  0  0  0  0  0  0  0
    5.4235   -5.2652  -23.1166 C   0  0  0  0  0  0  0  0  0  0  0  0
    6.1445   -6.4028  -22.7761 C   0  0  0  0  0  0  0  0  0  0  0  0
    5.6703   -7.4384  -23.5298 N   0  0  0  0  0  0  0  0  0  0  0  0
    4.6362   -7.0031  -24.3192 C   0  0  0  0  0  0  0  0  0  0  0  0
    4.4551   -5.6493  -24.0938 C   0  0  0  0  0  0  0  0  0  0  0  0
    3.4256   -4.7819  -24.7228 C   0  0  0  0  0  0  0  0  0  0  0  0
    7.1295   -6.5099  -21.8667 N   0  0  0  0  0  0  0  0  0  0  0  0
    7.3818   -5.3460  -21.2248 C   0  0  0  0  0  0  0  0  0  0  0  0
    6.0297   -8.3797  -23.4728 H   0  0  0  0  0  0  0  0  0  0  0  0
 15 16  1  0  0  0
 16 14  1  0  0  0
 14 11  1  0  0  0
 11 12  2  0  0  0
 11 13  2  0  0  0
 11  9  1  0  0  0
  9  1  1  0  0  0
  1  2  2  0  0  0
  2  3  1  0  0  0
  3  4  2  0  0  0
  4  5  1  0  0  0
  5  6  2  0  0  0
  1  6  1  0  0  0
  4  7  1  0  0  0
  3 17  1  0  0  0
 17 18  2  0  0  0
 17 19  1  0  0  0
 19 20  1  0  0  0
 20 21  2  0  0  0
 21 22  1  0  0  0
 22 23  2  0  0  0
 23 24  1  0  0  0
 24 25  1  0  0  0
 25 26  2  0  0  0
 22 26  1  0  0  0
 26 27  1  0  0  0
 23 28  1  0  0  0
 28 29  2  0  0  0
 20 29  1  0  0  0
  2  8  1  0  0  0
  9 10  1  0  0  0
 24 30  1  0  0  0
M  END
> <minimizedAffinity>
-8.86996

$$$$
mol_58252007_13


 30 32  0  0  0  0  0  0  0  0999 V2000
    2.2173   -1.5975  -19.9490 C   0  0  0  0  0  0  0  0  0  0  0  0
    2.0803   -2.7115  -20.7903 C   0  0  0  0  0  0  0  0  0  0  0  0
    0.8551   -3.0560  -21.3668 C   0  0  0  0  0  0  0  0  0  0  0  0
   -0.2516   -2.2723  -21.0463 C   0  0  0  0  0  0  0  0  0  0  0  0
   -0.1300   -1.1530  -20.2163 C   0  0  0  0  0  0  0  0  0  0  0  0
    1.1161   -0.7893  -19.6989 C   0  0  0  0  0  0  0  0  0  0  0  0
   -1.4612   -2.5251  -21.5598 F   0  0  0  0  0  0  0  0  0  0  0  0
    3.1810   -3.4508  -21.0079 F   0  0  0  0  0  0  0  0  0  0  0  0
    3.5210   -1.3198  -19.4478 N   0  0  0  0  0  0  0  0  0  0  0  0
    4.2420   -1.1672  -20.1597 H   0  0  0  0  0  0  0  0  0  0  0  0
    4.1552   -2.0328  -18.0779 S   0  0  0  0  0  0  0  0  0  0  0  0
    3.2646   -3.0998  -17.6708 O   0  0  0  0  0  0  0  0  0  0  0  0
    4.4237   -0.9184  -17.1947 O   0  0  0  0  0  0  0  0  0  0  0  0
    5.7503   -2.7201  -18.5714 C   0  0  0  0  0  0  0  0  0  0  0  0
    6.3347   -2.7923  -21.0626 C   0  0  0  0  0  0  0  0  0  0  0  0
    6.4037   -2.0141  -19.7591 C   0  0  0  0  0  0  0  0  0  0  0  0
    0.8154   -4.1862  -22.3357 C   0  0  0  0  0  0  0  0  0  0  0  0
    0.1919   -5.2057  -22.0377 O   0  0  0  0  0  0  0  0  0  0  0  0
    1.5284   -4.1067  -23.6715 C   0  0  0  0  0  0  0  0  0  0  0  0
    2.4279   -5.2833  -23.9170 C   0  0  0  0  0  0  0  0  0  0  0  0
    3.6734   -5.3742  -23.2855 C   0  0  0  0  0  0  0  0  0  0  0  0
    4.5255   -6.4264  -23.6524 C   0  0  0  0  0  0  0  0  0  0  0  0
    4.0356   -7.3455  -24.5717 C   0  0  0  0  0  0  0  0  0  0  0  0
    5.0102   -8.2770  -24.7903 N   0  0  0  0  0  0  0  0  0  0  0  0
    6.1289   -7.9583  -24.0632 C   0  0  0  0  0  0  0  0  0  0  0  0
    5.8639   -6.8113  -23.3347 C   0  0  0  0  0  0  0  0  0  0  0  0
    6.8079   -6.1044  -22.4308 C   0  0  0  0  0  0  0  0  0  0  0  0
    2.8312   -7.3468  -25.1703 N   0  0  0  0  0  0  0  0  0  0  0  0
    2.0652   -6.2903  -24.8138 C   0  0  0  0  0  0  0  0  0  0  0  0
    4.9035   -9.0582  -25.4202 H   0  0  0  0  0  0  0  0  0  0  0  0
 15 16  1  0  0  0
 16 14  1  0  0  0
 14 11  1  0  0  0
 11 12  2  0  0  0
 11 13  2  0  0  0
 11  9  1  0  0  0
  9  1  1  0  0  0
  1  2  2  0  0  0
  2  3  1  0  0  0
  3  4  2  0  0  0
  4  5  1  0  0  0
  5  6  2  0  0  0
  1  6  1  0  0  0
  4  7  1  0  0  0
  3 17  1  0  0  0
 17 18  2  0  0  0
 17 19  1  0  0  0
 19 20  1  0  0  0
 20 21  2  0  0  0
 21 22  1  0  0  0
 22 23  2  0  0  0
 23 24  1  0  0  0
 24 25  1  0  0  0
 25 26  2  0  0  0
 22 26  1  0  0  0
 26 27  1  0  0  0
 23 28  1  0  0  0
 28 29  2  0  0  0
 20 29  1  0  0  0
  2  8  1  0  0  0
  9 10  1  0  0  0
 24 30  1  0  0  0
M  END
> <minimizedAffinity>
-8.61016

$$$$
mol_58252021_14


 30 32  0  0  0  0  0  0  0  0999 V2000
   -2.5448   -2.3551  -20.7393 C   0  0  0  0  0  0  0  0  0  0  0  0
   -1.2033   -2.7712  -20.6801 C   0  0  0  0  0  0  0  0  0  0  0  0
   -0.1486   -1.8470  -20.6534 C   0  0  0  0  0  0  0  0  0  0  0  0
   -0.4655   -0.4918  -20.7182 C   0  0  0  0  0  0  0  0  0  0  0  0
   -1.7897   -0.0640  -20.7301 C   0  0  0  0  0  0  0  0  0  0  0  0
   -2.8258   -0.9946  -20.6920 C   0  0  0  0  0  0  0  0  0  0  0  0
    0.4788    0.4560  -20.7247 F   0  0  0  0  0  0  0  0  0  0  0  0
   -0.9595   -4.0928  -20.6748 F   0  0  0  0  0  0  0  0  0  0  0  0
   -3.5708   -3.3456  -20.7623 N   0  0  0  0  0  0  0  0  0  0  0  0
   -3.7034   -3.8781  -21.6260 H   0  0  0  0  0  0  0  0  0  0  0  0
   -4.8650   -3.3985  -19.7045 S   0  0  0  0  0  0  0  0  0  0  0  0
   -5.3785   -4.7467  -19.6433 O   0  0  0  0  0  0  0  0  0  0  0  0
   -5.7229   -2.3084  -20.1296 O   0  0  0  0  0  0  0  0  0  0  0  0
   -4.1692   -2.9276  -18.1091 C   0  0  0  0  0  0  0  0  0  0  0  0
   -5.4245   -3.0084  -15.8782 C   0  0  0  0  0  0  0  0  0  0  0  0
   -5.1403   -2.2345  -17.1543 C   0  0  0  0  0  0  0  0  0  0  0  0
    1.2477   -2.3280  -20.4785 C   0  0  0  0  0  0  0  0  0  0  0  0
    1.9928   -2.3600  -21.4584 O   0  0  0  0  0  0  0  0  0  0  0  0
    1.7491   -2.7981  -19.1255 C   0  0  0  0  0  0  0  0  0  0  0  0
    3.1958   -2.4740  -18.8829 C   0  0  0  0  0  0  0  0  0  0  0  0
    3.5989   -1.7089  -17.7877 C   0  0  0  0  0  0  0  0  0  0  0  0
    4.8737   -1.3841  -17.4683 N   0  0  0  0  0  0  0  0  0  0  0  0
    5.7747   -1.9219  -18.3100 C   0  0  0  0  0  0  0  0  0  0  0  0
    5.5251   -2.7034  -19.4302 C   0  0  0  0  0  0  0  0  0  0  0  0
    4.1848   -2.9727  -19.7434 C   0  0  0  0  0  0  0  0  0  0  0  0
    6.7877   -3.0679  -19.9686 C   0  0  0  0  0  0  0  0  0  0  0  0
    7.7674   -2.5410  -19.1460 C   0  0  0  0  0  0  0  0  0  0  0  0
    7.1304   -1.8010  -18.1764 N   0  0  0  0  0  0  0  0  0  0  0  0
    9.2410   -2.7029  -19.1761 C   0  0  0  0  0  0  0  0  0  0  0  0
    7.5699   -1.2853  -17.4286 H   0  0  0  0  0  0  0  0  0  0  0  0
 15 16  1  0  0  0
 16 14  1  0  0  0
 14 11  1  0  0  0
 11 12  2  0  0  0
 11 13  2  0  0  0
 11  9  1  0  0  0
  9  1  1  0  0  0
  1  2  2  0  0  0
  2  3  1  0  0  0
  3  4  2  0  0  0
  4  5  1  0  0  0
  5  6  2  0  0  0
  1  6  1  0  0  0
  4  7  1  0  0  0
  3 17  1  0  0  0
 17 18  2  0  0  0
 17 19  1  0  0  0
 19 20  1  0  0  0
 20 21  2  0  0  0
 21 22  1  0  0  0
 22 23  2  0  0  0
 23 24  1  0  0  0
 24 25  2  0  0  0
 20 25  1  0  0  0
 24 26  1  0  0  0
 26 27  2  0  0  0
 27 28  1  0  0  0
 23 28  1  0  0  0
 27 29  1  0  0  0
  2  8  1  0  0  0
  9 10  1  0  0  0
 28 30  1  0  0  0
M  END
> <minimizedAffinity>
-10.77110

$$$$
mol_58252021_14


 30 32  0  0  0  0  0  0  0  0999 V2000
    6.3319   -2.4834  -19.7288 C   0  0  0  0  0  0  0  0  0  0  0  0
    5.2071   -2.4231  -20.5698 C   0  0  0  0  0  0  0  0  0  0  0  0
    3.9111   -2.6384  -20.0787 C   0  0  0  0  0  0  0  0  0  0  0  0
    3.7671   -2.9468  -18.7277 C   0  0  0  0  0  0  0  0  0  0  0  0
    4.8661   -2.9642  -17.8742 C   0  0  0  0  0  0  0  0  0  0  0  0
    6.1390   -2.6853  -18.3671 C   0  0  0  0  0  0  0  0  0  0  0  0
    2.5706   -3.1928  -18.1817 F   0  0  0  0  0  0  0  0  0  0  0  0
    5.4156   -2.1752  -21.8740 F   0  0  0  0  0  0  0  0  0  0  0  0
    7.6226   -2.2533  -20.2905 N   0  0  0  0  0  0  0  0  0  0  0  0
    7.7043   -1.5540  -21.0331 H   0  0  0  0  0  0  0  0  0  0  0  0
    8.9055   -3.3219  -20.1945 S   0  0  0  0  0  0  0  0  0  0  0  0
    9.5537   -3.1776  -18.9123 O   0  0  0  0  0  0  0  0  0  0  0  0
    9.6512   -3.1010  -21.4193 O   0  0  0  0  0  0  0  0  0  0  0  0
    8.1501   -4.9538  -20.3265 C   0  0  0  0  0  0  0  0  0  0  0  0
    6.6171   -5.3211  -22.3450 C   0  0  0  0  0  0  0  0  0  0  0  0
    8.0046   -5.4906  -21.7499 C   0  0  0  0  0  0  0  0  0  0  0  0
    2.7423   -2.4554  -20.9798 C   0  0  0  0  0  0  0  0  0  0  0  0
    2.6652   -3.1401  -22.0004 O   0  0  0  0  0  0  0  0  0  0  0  0
    1.6698   -1.4272  -20.6704 C   0  0  0  0  0  0  0  0  0  0  0  0
    0.2775   -1.9898  -20.7140 C   0  0  0  0  0  0  0  0  0  0  0  0
    0.0244   -3.3343  -20.4394 C   0  0  0  0  0  0  0  0  0  0  0  0
   -1.1910   -3.9303  -20.4277 N   0  0  0  0  0  0  0  0  0  0  0  0
   -2.1955   -3.0696  -20.6719 C   0  0  0  0  0  0  0  0  0  0  0  0
   -2.0982   -1.7134  -20.9533 C   0  0  0  0  0  0  0  0  0  0  0  0
   -0.8127   -1.1545  -20.9986 C   0  0  0  0  0  0  0  0  0  0  0  0
   -3.4243   -1.2252  -21.0949 C   0  0  0  0  0  0  0  0  0  0  0  0
   -4.2909   -2.2767  -20.8552 C   0  0  0  0  0  0  0  0  0  0  0  0
   -3.5224   -3.4005  -20.6559 N   0  0  0  0  0  0  0  0  0  0  0  0
   -5.7706   -2.3047  -20.7647 C   0  0  0  0  0  0  0  0  0  0  0  0
   -3.8590   -4.3323  -20.4636 H   0  0  0  0  0  0  0  0  0  0  0  0
 15 16  1  0  0  0
 16 14  1  0  0  0
 14 11  1  0  0  0
 11 12  2  0  0  0
 11 13  2  0  0  0
 11  9  1  0  0  0
  9  1  1  0  0  0
  1  2  2  0  0  0
  2  3  1  0  0  0
  3  4  2  0  0  0
  4  5  1  0  0  0
  5  6  2  0  0  0
  1  6  1  0  0  0
  4  7  1  0  0  0
  3 17  1  0  0  0
 17 18  2  0  0  0
 17 19  1  0  0  0
 19 20  1  0  0  0
 20 21  2  0  0  0
 21 22  1  0  0  0
 22 23  2  0  0  0
 23 24  1  0  0  0
 24 25  2  0  0  0
 20 25  1  0  0  0
 24 26  1  0  0  0
 26 27  2  0  0  0
 27 28  1  0  0  0
 23 28  1  0  0  0
 27 29  1  0  0  0
  2  8  1  0  0  0
  9 10  1  0  0  0
 28 30  1  0  0  0
M  END
> <minimizedAffinity>
-9.74965

$$$$
mol_58252021_14


 30 32  0  0  0  0  0  0  0  0999 V2000
    2.0831   -2.7668  -19.5996 C   0  0  0  0  0  0  0  0  0  0  0  0
    3.1573   -2.5668  -20.4840 C   0  0  0  0  0  0  0  0  0  0  0  0
    4.4832   -2.5178  -20.0291 C   0  0  0  0  0  0  0  0  0  0  0  0
    4.7094   -2.6435  -18.6601 C   0  0  0  0  0  0  0  0  0  0  0  0
    3.6607   -2.8884  -17.7787 C   0  0  0  0  0  0  0  0  0  0  0  0
    2.3565   -2.9973  -18.2564 C   0  0  0  0  0  0  0  0  0  0  0  0
    5.9397   -2.5821  -18.1378 F   0  0  0  0  0  0  0  0  0  0  0  0
    2.8706   -2.3978  -21.7860 F   0  0  0  0  0  0  0  0  0  0  0  0
    0.7583   -2.8081  -20.1264 N   0  0  0  0  0  0  0  0  0  0  0  0
    0.4618   -3.6589  -20.6115 H   0  0  0  0  0  0  0  0  0  0  0  0
   -0.1813   -1.4612  -20.4429 S   0  0  0  0  0  0  0  0  0  0  0  0
   -0.0004   -1.0640  -21.8193 O   0  0  0  0  0  0  0  0  0  0  0  0
    0.1364   -0.5394  -19.3685 O   0  0  0  0  0  0  0  0  0  0  0  0
   -1.8762   -2.0151  -20.1756 C   0  0  0  0  0  0  0  0  0  0  0  0
   -4.2808   -1.9569  -21.0555 C   0  0  0  0  0  0  0  0  0  0  0  0
   -2.9431   -1.2442  -20.9519 C   0  0  0  0  0  0  0  0  0  0  0  0
    5.5953   -2.4158  -21.0111 C   0  0  0  0  0  0  0  0  0  0  0  0
    6.0876   -1.3104  -21.2395 O   0  0  0  0  0  0  0  0  0  0  0  0
    6.1059   -3.6425  -21.7444 C   0  0  0  0  0  0  0  0  0  0  0  0
    5.3466   -3.9389  -23.0064 C   0  0  0  0  0  0  0  0  0  0  0  0
    5.2874   -3.0206  -24.0555 C   0  0  0  0  0  0  0  0  0  0  0  0
    4.6539   -3.2015  -25.2381 N   0  0  0  0  0  0  0  0  0  0  0  0
    4.0919   -4.4188  -25.3471 C   0  0  0  0  0  0  0  0  0  0  0  0
    4.0746   -5.4310  -24.3968 C   0  0  0  0  0  0  0  0  0  0  0  0
    4.7061   -5.1757  -23.1708 C   0  0  0  0  0  0  0  0  0  0  0  0
    3.4029   -6.5362  -24.9834 C   0  0  0  0  0  0  0  0  0  0  0  0
    3.0689   -6.1895  -26.2804 C   0  0  0  0  0  0  0  0  0  0  0  0
    3.4466   -4.8788  -26.4617 N   0  0  0  0  0  0  0  0  0  0  0  0
    2.4592   -6.9938  -27.3667 C   0  0  0  0  0  0  0  0  0  0  0  0
    3.3326   -4.3313  -27.3018 H   0  0  0  0  0  0  0  0  0  0  0  0
 15 16  1  0  0  0
 16 14  1  0  0  0
 14 11  1  0  0  0
 11 12  2  0  0  0
 11 13  2  0  0  0
 11  9  1  0  0  0
  9  1  1  0  0  0
  1  2  2  0  0  0
  2  3  1  0  0  0
  3  4  2  0  0  0
  4  5  1  0  0  0
  5  6  2  0  0  0
  1  6  1  0  0  0
  4  7  1  0  0  0
  3 17  1  0  0  0
 17 18  2  0  0  0
 17 19  1  0  0  0
 19 20  1  0  0  0
 20 21  2  0  0  0
 21 22  1  0  0  0
 22 23  2  0  0  0
 23 24  1  0  0  0
 24 25  2  0  0  0
 20 25  1  0  0  0
 24 26  1  0  0  0
 26 27  2  0  0  0
 27 28  1  0  0  0
 23 28  1  0  0  0
 27 29  1  0  0  0
  2  8  1  0  0  0
  9 10  1  0  0  0
 28 30  1  0  0  0
M  END
> <minimizedAffinity>
-9.72166

$$$$
mol_144212136_15


 33 36  0  0  0  0  0  0  0  0999 V2000
    1.4996   -2.5214  -20.5475 C   0  0  0  0  0  0  0  0  0  0  0  0
    1.8386   -3.3112  -21.4201 O   0  0  0  0  0  0  0  0  0  0  0  0
    2.4737   -2.1099  -19.5306 C   0  0  0  0  0  0  0  0  0  0  0  0
    2.0639   -1.5826  -18.3108 C   0  0  0  0  0  0  0  0  0  0  0  0
    3.1620   -1.4005  -17.5188 N   0  0  0  0  0  0  0  0  0  0  0  0
    4.2842   -1.7701  -18.2001 C   0  0  0  0  0  0  0  0  0  0  0  0
    3.9115   -2.1301  -19.4924 C   0  0  0  0  0  0  0  0  0  0  0  0
    4.9624   -2.4713  -20.3717 C   0  0  0  0  0  0  0  0  0  0  0  0
    6.2711   -2.5638  -19.8672 C   0  0  0  0  0  0  0  0  0  0  0  0
    6.4652   -2.1953  -18.5343 C   0  0  0  0  0  0  0  0  0  0  0  0
    5.5167   -1.7693  -17.6648 N   0  0  0  0  0  0  0  0  0  0  0  0
    3.1689   -1.0717  -16.5644 H   0  0  0  0  0  0  0  0  0  0  0  0
    7.3745   -3.0658  -20.6915 C   0  0  0  0  0  0  0  0  0  0  0  0
    7.1668   -3.9592  -21.7444 C   0  0  0  0  0  0  0  0  0  0  0  0
    8.2604   -4.4067  -22.4822 C   0  0  0  0  0  0  0  0  0  0  0  0
    9.5311   -3.9575  -22.1499 C   0  0  0  0  0  0  0  0  0  0  0  0
    9.6525   -3.0619  -21.1014 C   0  0  0  0  0  0  0  0  0  0  0  0
    8.6076   -2.5984  -20.3792 N   0  0  0  0  0  0  0  0  0  0  0  0
   -2.3053   -2.2775  -20.4096 C   0  0  0  0  0  0  0  0  0  0  0  0
   -0.9843   -2.7660  -20.3496 C   0  0  0  0  0  0  0  0  0  0  0  0
    0.1255   -1.9430  -20.6017 C   0  0  0  0  0  0  0  0  0  0  0  0
   -0.1403   -0.6302  -20.9879 C   0  0  0  0  0  0  0  0  0  0  0  0
   -1.4173   -0.0883  -20.9012 C   0  0  0  0  0  0  0  0  0  0  0  0
   -2.4913   -0.9057  -20.5816 C   0  0  0  0  0  0  0  0  0  0  0  0
    0.7966    0.1591  -21.5241 F   0  0  0  0  0  0  0  0  0  0  0  0
   -0.8336   -4.0790  -20.1074 F   0  0  0  0  0  0  0  0  0  0  0  0
   -3.3838   -3.1781  -20.4520 N   0  0  0  0  0  0  0  0  0  0  0  0
   -3.7546   -3.4046  -21.3720 H   0  0  0  0  0  0  0  0  0  0  0  0
   -4.1772   -3.7763  -19.1159 S   0  0  0  0  0  0  0  0  0  0  0  0
   -5.3068   -4.6432  -19.5809 O   0  0  0  0  0  0  0  0  0  0  0  0
   -4.9156   -2.2157  -18.4903 C   0  0  0  0  0  0  0  0  0  0  0  0
   -4.5649   -3.4299  -16.2641 C   0  0  0  0  0  0  0  0  0  0  0  0
   -5.2112   -2.2599  -16.9913 C   0  0  0  0  0  0  0  0  0  0  0  0
 32 33  1  0  0  0
 33 31  1  0  0  0
 31 29  1  0  0  0
 29 30  2  0  0  0
 29 27  1  0  0  0
 27 19  1  0  0  0
 19 20  2  0  0  0
 20 21  1  0  0  0
 21 22  2  0  0  0
 22 23  1  0  0  0
 23 24  2  0  0  0
 19 24  1  0  0  0
 22 25  1  0  0  0
 21  1  1  0  0  0
  1  2  2  0  0  0
  1  3  1  0  0  0
  3  4  2  0  0  0
  4  5  1  0  0  0
  5  6  1  0  0  0
  6  7  2  0  0  0
  3  7  1  0  0  0
  7  8  1  0  0  0
  8  9  2  0  0  0
  9 10  1  0  0  0
 10 11  2  0  0  0
  6 11  1  0  0  0
  9 13  1  0  0  0
 13 14  2  0  0  0
 14 15  1  0  0  0
 15 16  2  0  0  0
 16 17  1  0  0  0
 17 18  2  0  0  0
 13 18  1  0  0  0
 20 26  1  0  0  0
 27 28  1  0  0  0
  5 12  1  0  0  0
M  END
> <minimizedAffinity>
-10.82212

$$$$
mol_144212136_15


 33 36  0  0  0  0  0  0  0  0999 V2000
    1.4651   -2.1933  -20.3503 C   0  0  0  0  0  0  0  0  0  0  0  0
    2.0423   -2.0238  -19.2835 O   0  0  0  0  0  0  0  0  0  0  0  0
    2.1290   -2.9526  -21.4157 C   0  0  0  0  0  0  0  0  0  0  0  0
    1.4092   -3.4773  -22.4836 C   0  0  0  0  0  0  0  0  0  0  0  0
    2.2846   -4.0259  -23.3774 N   0  0  0  0  0  0  0  0  0  0  0  0
    3.5586   -3.8976  -22.9079 C   0  0  0  0  0  0  0  0  0  0  0  0
    3.5014   -3.3183  -21.6432 C   0  0  0  0  0  0  0  0  0  0  0  0
    4.7326   -3.1776  -20.9660 C   0  0  0  0  0  0  0  0  0  0  0  0
    5.9237   -3.4887  -21.6444 C   0  0  0  0  0  0  0  0  0  0  0  0
    5.8016   -4.0331  -22.9246 C   0  0  0  0  0  0  0  0  0  0  0  0
    4.6490   -4.2812  -23.5933 N   0  0  0  0  0  0  0  0  0  0  0  0
    2.0550   -4.4429  -24.2676 H   0  0  0  0  0  0  0  0  0  0  0  0
    7.2357   -3.2136  -21.0512 C   0  0  0  0  0  0  0  0  0  0  0  0
    7.3811   -2.4345  -19.9014 C   0  0  0  0  0  0  0  0  0  0  0  0
    8.6577   -2.2019  -19.3948 C   0  0  0  0  0  0  0  0  0  0  0  0
    9.7551   -2.7459  -20.0478 C   0  0  0  0  0  0  0  0  0  0  0  0
    9.5269   -3.5180  -21.1738 C   0  0  0  0  0  0  0  0  0  0  0  0
    8.2986   -3.7738  -21.6779 N   0  0  0  0  0  0  0  0  0  0  0  0
   -2.3491   -2.1400  -20.4167 C   0  0  0  0  0  0  0  0  0  0  0  0
   -1.0106   -2.5580  -20.2714 C   0  0  0  0  0  0  0  0  0  0  0  0
    0.0690   -1.6882  -20.4957 C   0  0  0  0  0  0  0  0  0  0  0  0
   -0.2405   -0.4043  -20.9421 C   0  0  0  0  0  0  0  0  0  0  0  0
   -1.5455    0.0741  -20.9406 C   0  0  0  0  0  0  0  0  0  0  0  0
   -2.5932   -0.7860  -20.6473 C   0  0  0  0  0  0  0  0  0  0  0  0
    0.6834    0.4136  -21.4576 F   0  0  0  0  0  0  0  0  0  0  0  0
   -0.8084   -3.8527  -19.9748 F   0  0  0  0  0  0  0  0  0  0  0  0
   -3.3781   -3.0956  -20.4819 N   0  0  0  0  0  0  0  0  0  0  0  0
   -3.7069   -3.3509  -21.4103 H   0  0  0  0  0  0  0  0  0  0  0  0
   -4.1825   -3.7193  -19.1642 S   0  0  0  0  0  0  0  0  0  0  0  0
   -5.2773   -4.6162  -19.6549 O   0  0  0  0  0  0  0  0  0  0  0  0
   -4.9774   -2.1817  -18.5511 C   0  0  0  0  0  0  0  0  0  0  0  0
   -4.6864   -3.4377  -16.3395 C   0  0  0  0  0  0  0  0  0  0  0  0
   -5.0983   -2.1446  -17.0279 C   0  0  0  0  0  0  0  0  0  0  0  0
 32 33  1  0  0  0
 33 31  1  0  0  0
 31 29  1  0  0  0
 29 30  2  0  0  0
 29 27  1  0  0  0
 27 19  1  0  0  0
 19 20  2  0  0  0
 20 21  1  0  0  0
 21 22  2  0  0  0
 22 23  1  0  0  0
 23 24  2  0  0  0
 19 24  1  0  0  0
 22 25  1  0  0  0
 21  1  1  0  0  0
  1  2  2  0  0  0
  1  3  1  0  0  0
  3  4  2  0  0  0
  4  5  1  0  0  0
  5  6  1  0  0  0
  6  7  2  0  0  0
  3  7  1  0  0  0
  7  8  1  0  0  0
  8  9  2  0  0  0
  9 10  1  0  0  0
 10 11  2  0  0  0
  6 11  1  0  0  0
  9 13  1  0  0  0
 13 14  2  0  0  0
 14 15  1  0  0  0
 15 16  2  0  0  0
 16 17  1  0  0  0
 17 18  2  0  0  0
 13 18  1  0  0  0
 20 26  1  0  0  0
 27 28  1  0  0  0
  5 12  1  0  0  0
M  END
> <minimizedAffinity>
-10.07322

$$$$
mol_144212136_15


 33 36  0  0  0  0  0  0  0  0999 V2000
    6.0212   -2.3052  -20.6627 C   0  0  0  0  0  0  0  0  0  0  0  0
    6.3664   -1.2093  -21.0869 O   0  0  0  0  0  0  0  0  0  0  0  0
    6.8113   -3.4924  -21.0073 C   0  0  0  0  0  0  0  0  0  0  0  0
    8.0606   -3.7173  -20.4394 C   0  0  0  0  0  0  0  0  0  0  0  0
    8.5132   -4.9416  -20.8421 N   0  0  0  0  0  0  0  0  0  0  0  0
    7.6030   -5.5126  -21.6820 C   0  0  0  0  0  0  0  0  0  0  0  0
    6.5689   -4.6035  -21.8881 C   0  0  0  0  0  0  0  0  0  0  0  0
    5.5650   -4.9979  -22.7995 C   0  0  0  0  0  0  0  0  0  0  0  0
    5.5912   -6.3031  -23.3205 C   0  0  0  0  0  0  0  0  0  0  0  0
    6.6890   -7.0985  -22.9855 C   0  0  0  0  0  0  0  0  0  0  0  0
    7.7319   -6.7485  -22.1937 N   0  0  0  0  0  0  0  0  0  0  0  0
    9.3709   -5.3910  -20.5565 H   0  0  0  0  0  0  0  0  0  0  0  0
    4.4935   -6.8201  -24.1432 C   0  0  0  0  0  0  0  0  0  0  0  0
    3.2510   -6.1859  -24.2055 C   0  0  0  0  0  0  0  0  0  0  0  0
    2.2462   -6.7354  -24.9985 C   0  0  0  0  0  0  0  0  0  0  0  0
    2.5025   -7.9030  -25.7040 C   0  0  0  0  0  0  0  0  0  0  0  0
    3.7640   -8.4636  -25.6006 C   0  0  0  0  0  0  0  0  0  0  0  0
    4.7626   -7.9433  -24.8521 N   0  0  0  0  0  0  0  0  0  0  0  0
    2.4367   -2.7410  -19.4314 C   0  0  0  0  0  0  0  0  0  0  0  0
    3.5800   -2.6814  -20.2539 C   0  0  0  0  0  0  0  0  0  0  0  0
    4.8514   -2.3783  -19.7400 C   0  0  0  0  0  0  0  0  0  0  0  0
    4.9226   -2.0653  -18.3834 C   0  0  0  0  0  0  0  0  0  0  0  0
    3.8452   -2.2699  -17.5296 C   0  0  0  0  0  0  0  0  0  0  0  0
    2.6139   -2.6377  -18.0516 C   0  0  0  0  0  0  0  0  0  0  0  0
    6.0010   -1.4909  -17.8396 F   0  0  0  0  0  0  0  0  0  0  0  0
    3.3888   -2.8595  -21.5719 F   0  0  0  0  0  0  0  0  0  0  0  0
    1.1561   -2.7452  -20.0113 N   0  0  0  0  0  0  0  0  0  0  0  0
    0.7061   -3.6513  -20.1196 H   0  0  0  0  0  0  0  0  0  0  0  0
    0.3989   -1.4096  -20.6557 S   0  0  0  0  0  0  0  0  0  0  0  0
    0.2325   -0.3877  -19.5733 O   0  0  0  0  0  0  0  0  0  0  0  0
   -1.2576   -2.1361  -20.9725 C   0  0  0  0  0  0  0  0  0  0  0  0
   -3.7849   -1.7309  -20.9320 C   0  0  0  0  0  0  0  0  0  0  0  0
   -2.3989   -1.1756  -20.6387 C   0  0  0  0  0  0  0  0  0  0  0  0
 32 33  1  0  0  0
 33 31  1  0  0  0
 31 29  1  0  0  0
 29 30  2  0  0  0
 29 27  1  0  0  0
 27 19  1  0  0  0
 19 20  2  0  0  0
 20 21  1  0  0  0
 21 22  2  0  0  0
 22 23  1  0  0  0
 23 24  2  0  0  0
 19 24  1  0  0  0
 22 25  1  0  0  0
 21  1  1  0  0  0
  1  2  2  0  0  0
  1  3  1  0  0  0
  3  4  2  0  0  0
  4  5  1  0  0  0
  5  6  1  0  0  0
  6  7  2  0  0  0
  3  7  1  0  0  0
  7  8  1  0  0  0
  8  9  2  0  0  0
  9 10  1  0  0  0
 10 11  2  0  0  0
  6 11  1  0  0  0
  9 13  1  0  0  0
 13 14  2  0  0  0
 14 15  1  0  0  0
 15 16  2  0  0  0
 16 17  1  0  0  0
 17 18  2  0  0  0
 13 18  1  0  0  0
 20 26  1  0  0  0
 27 28  1  0  0  0
  5 12  1  0  0  0
M  END
> <minimizedAffinity>
-10.03367

$$$$
mol_58252043_16


 31 33  0  0  0  0  0  0  0  0999 V2000
   -2.4936   -2.3334  -20.6890 C   0  0  0  0  0  0  0  0  0  0  0  0
   -1.1402   -2.6802  -20.5534 C   0  0  0  0  0  0  0  0  0  0  0  0
   -0.1341   -1.7074  -20.4986 C   0  0  0  0  0  0  0  0  0  0  0  0
   -0.4999   -0.3704  -20.6112 C   0  0  0  0  0  0  0  0  0  0  0  0
   -1.8416   -0.0063  -20.6913 C   0  0  0  0  0  0  0  0  0  0  0  0
   -2.8375   -0.9859  -20.6791 C   0  0  0  0  0  0  0  0  0  0  0  0
    0.4144    0.6070  -20.6094 F   0  0  0  0  0  0  0  0  0  0  0  0
   -0.8286   -3.9874  -20.5314 F   0  0  0  0  0  0  0  0  0  0  0  0
   -3.4536   -3.3895  -20.7363 N   0  0  0  0  0  0  0  0  0  0  0  0
   -3.4136   -4.0189  -21.5434 H   0  0  0  0  0  0  0  0  0  0  0  0
   -4.9410   -3.3695  -19.9716 S   0  0  0  0  0  0  0  0  0  0  0  0
   -5.2874   -4.7131  -19.5601 O   0  0  0  0  0  0  0  0  0  0  0  0
   -5.8037   -2.6321  -20.8691 O   0  0  0  0  0  0  0  0  0  0  0  0
   -4.6735   -2.3274  -18.5270 C   0  0  0  0  0  0  0  0  0  0  0  0
   -5.3512   -2.9802  -16.1494 C   0  0  0  0  0  0  0  0  0  0  0  0
   -4.3044   -3.0729  -17.2472 C   0  0  0  0  0  0  0  0  0  0  0  0
    1.2750   -2.1309  -20.3003 C   0  0  0  0  0  0  0  0  0  0  0  0
    1.9706   -2.3287  -21.2964 O   0  0  0  0  0  0  0  0  0  0  0  0
    1.8368   -2.3551  -18.9078 C   0  0  0  0  0  0  0  0  0  0  0  0
    3.3358   -2.2835  -18.7640 C   0  0  0  0  0  0  0  0  0  0  0  0
    4.2240   -3.0037  -19.5720 C   0  0  0  0  0  0  0  0  0  0  0  0
    5.6033   -2.8153  -19.3868 C   0  0  0  0  0  0  0  0  0  0  0  0
    5.9947   -1.9961  -18.3371 C   0  0  0  0  0  0  0  0  0  0  0  0
    7.3602   -1.9836  -18.3051 N   0  0  0  0  0  0  0  0  0  0  0  0
    7.8561   -2.7362  -19.3398 C   0  0  0  0  0  0  0  0  0  0  0  0
    6.7885   -3.2567  -20.0527 C   0  0  0  0  0  0  0  0  0  0  0  0
    5.2025   -1.3236  -17.4845 N   0  0  0  0  0  0  0  0  0  0  0  0
    3.8846   -1.4920  -17.7502 C   0  0  0  0  0  0  0  0  0  0  0  0
    7.8979   -1.4711  -17.6218 H   0  0  0  0  0  0  0  0  0  0  0  0
    6.8558   -4.0887  -21.2936 C   0  0  0  0  0  0  0  0  0  0  0  0
    7.5873   -5.4051  -21.0706 C   0  0  0  0  0  0  0  0  0  0  0  0
 15 16  1  0  0  0
 16 14  1  0  0  0
 14 11  1  0  0  0
 11 12  2  0  0  0
 11 13  2  0  0  0
 11  9  1  0  0  0
  9  1  1  0  0  0
  1  2  2  0  0  0
  2  3  1  0  0  0
  3  4  2  0  0  0
  4  5  1  0  0  0
  5  6  2  0  0  0
  1  6  1  0  0  0
  4  7  1  0  0  0
  3 17  1  0  0  0
 17 18  2  0  0  0
 17 19  1  0  0  0
 19 20  1  0  0  0
 20 21  2  0  0  0
 21 22  1  0  0  0
 22 23  2  0  0  0
 23 24  1  0  0  0
 24 25  1  0  0  0
 25 26  2  0  0  0
 22 26  1  0  0  0
 26 30  1  0  0  0
 30 31  1  0  0  0
 23 27  1  0  0  0
 27 28  2  0  0  0
 20 28  1  0  0  0
  2  8  1  0  0  0
  9 10  1  0  0  0
 24 29  1  0  0  0
M  END
> <minimizedAffinity>
-10.76741

$$$$
mol_58252043_16


 31 33  0  0  0  0  0  0  0  0999 V2000
    2.1663   -2.7441  -19.5541 C   0  0  0  0  0  0  0  0  0  0  0  0
    3.2635   -2.5535  -20.4085 C   0  0  0  0  0  0  0  0  0  0  0  0
    4.5765   -2.5204  -19.9224 C   0  0  0  0  0  0  0  0  0  0  0  0
    4.7784   -2.6530  -18.5529 C   0  0  0  0  0  0  0  0  0  0  0  0
    3.7065   -2.8971  -17.6980 C   0  0  0  0  0  0  0  0  0  0  0  0
    2.4092   -2.9923  -18.2073 C   0  0  0  0  0  0  0  0  0  0  0  0
    6.0032   -2.5879  -18.0173 F   0  0  0  0  0  0  0  0  0  0  0  0
    3.0123   -2.3480  -21.7127 F   0  0  0  0  0  0  0  0  0  0  0  0
    0.8617   -2.7645  -20.1344 N   0  0  0  0  0  0  0  0  0  0  0  0
    0.6248   -3.5718  -20.7187 H   0  0  0  0  0  0  0  0  0  0  0  0
   -0.0719   -1.4119  -20.4452 S   0  0  0  0  0  0  0  0  0  0  0  0
    0.1102   -1.0091  -21.8233 O   0  0  0  0  0  0  0  0  0  0  0  0
    0.2383   -0.4981  -19.3671 O   0  0  0  0  0  0  0  0  0  0  0  0
   -1.7610   -1.9792  -20.1823 C   0  0  0  0  0  0  0  0  0  0  0  0
   -4.1862   -1.9102  -20.9896 C   0  0  0  0  0  0  0  0  0  0  0  0
   -2.8297   -1.2254  -20.9694 C   0  0  0  0  0  0  0  0  0  0  0  0
    5.7013   -2.3698  -20.8797 C   0  0  0  0  0  0  0  0  0  0  0  0
    6.0924   -1.2335  -21.1465 O   0  0  0  0  0  0  0  0  0  0  0  0
    6.3298   -3.5803  -21.5464 C   0  0  0  0  0  0  0  0  0  0  0  0
    5.7391   -4.0084  -22.8657 C   0  0  0  0  0  0  0  0  0  0  0  0
    4.4870   -4.6231  -22.9875 C   0  0  0  0  0  0  0  0  0  0  0  0
    4.0107   -4.9270  -24.2733 C   0  0  0  0  0  0  0  0  0  0  0  0
    4.8671   -4.6861  -25.3385 C   0  0  0  0  0  0  0  0  0  0  0  0
    4.2347   -5.0879  -26.4806 N   0  0  0  0  0  0  0  0  0  0  0  0
    2.9730   -5.5357  -26.1801 C   0  0  0  0  0  0  0  0  0  0  0  0
    2.7865   -5.4317  -24.8114 C   0  0  0  0  0  0  0  0  0  0  0  0
    6.1022   -4.1578  -25.2924 N   0  0  0  0  0  0  0  0  0  0  0  0
    6.4835   -3.8258  -24.0354 C   0  0  0  0  0  0  0  0  0  0  0  0
    4.6512   -5.0328  -27.3983 H   0  0  0  0  0  0  0  0  0  0  0  0
    1.5418   -5.7510  -24.0465 C   0  0  0  0  0  0  0  0  0  0  0  0
    0.8282   -4.5006  -23.5513 C   0  0  0  0  0  0  0  0  0  0  0  0
 15 16  1  0  0  0
 16 14  1  0  0  0
 14 11  1  0  0  0
 11 12  2  0  0  0
 11 13  2  0  0  0
 11  9  1  0  0  0
  9  1  1  0  0  0
  1  2  2  0  0  0
  2  3  1  0  0  0
  3  4  2  0  0  0
  4  5  1  0  0  0
  5  6  2  0  0  0
  1  6  1  0  0  0
  4  7  1  0  0  0
  3 17  1  0  0  0
 17 18  2  0  0  0
 17 19  1  0  0  0
 19 20  1  0  0  0
 20 21  2  0  0  0
 21 22  1  0  0  0
 22 23  2  0  0  0
 23 24  1  0  0  0
 24 25  1  0  0  0
 25 26  2  0  0  0
 22 26  1  0  0  0
 26 30  1  0  0  0
 30 31  1  0  0  0
 23 27  1  0  0  0
 27 28  2  0  0  0
 20 28  1  0  0  0
  2  8  1  0  0  0
  9 10  1  0  0  0
 24 29  1  0  0  0
M  END
> <minimizedAffinity>
-9.84024

$$$$
mol_58252043_16


 31 33  0  0  0  0  0  0  0  0999 V2000
   -2.5594   -2.1841  -20.7014 C   0  0  0  0  0  0  0  0  0  0  0  0
   -1.3199   -2.8344  -20.8058 C   0  0  0  0  0  0  0  0  0  0  0  0
   -0.1201   -2.1185  -20.9028 C   0  0  0  0  0  0  0  0  0  0  0  0
   -0.1787   -0.7292  -20.9232 C   0  0  0  0  0  0  0  0  0  0  0  0
   -1.3940   -0.0679  -20.7659 C   0  0  0  0  0  0  0  0  0  0  0  0
   -2.5748   -0.7967  -20.6048 C   0  0  0  0  0  0  0  0  0  0  0  0
    0.9257    0.0151  -21.0567 F   0  0  0  0  0  0  0  0  0  0  0  0
   -1.3211   -4.1771  -20.8646 F   0  0  0  0  0  0  0  0  0  0  0  0
   -3.7332   -2.9919  -20.6067 N   0  0  0  0  0  0  0  0  0  0  0  0
   -4.4465   -2.8629  -21.3304 H   0  0  0  0  0  0  0  0  0  0  0  0
   -4.3218   -3.6677  -19.1945 S   0  0  0  0  0  0  0  0  0  0  0  0
   -3.2170   -4.1681  -18.4048 O   0  0  0  0  0  0  0  0  0  0  0  0
   -5.3764   -4.5586  -19.6274 O   0  0  0  0  0  0  0  0  0  0  0  0
   -5.1142   -2.2885  -18.3494 C   0  0  0  0  0  0  0  0  0  0  0  0
   -5.5141   -3.0722  -15.9485 C   0  0  0  0  0  0  0  0  0  0  0  0
   -4.7538   -2.1367  -16.8739 C   0  0  0  0  0  0  0  0  0  0  0  0
    1.1651   -2.8597  -20.9564 C   0  0  0  0  0  0  0  0  0  0  0  0
    1.8223   -2.9640  -19.9208 O   0  0  0  0  0  0  0  0  0  0  0  0
    1.6801   -3.4413  -22.2609 C   0  0  0  0  0  0  0  0  0  0  0  0
    3.1606   -3.7141  -22.3416 C   0  0  0  0  0  0  0  0  0  0  0  0
    4.1154   -3.0207  -21.5881 C   0  0  0  0  0  0  0  0  0  0  0  0
    5.4633   -3.3986  -21.7012 C   0  0  0  0  0  0  0  0  0  0  0  0
    5.7699   -4.3759  -22.6375 C   0  0  0  0  0  0  0  0  0  0  0  0
    7.1232   -4.5610  -22.6187 N   0  0  0  0  0  0  0  0  0  0  0  0
    7.6882   -3.7609  -21.6577 C   0  0  0  0  0  0  0  0  0  0  0  0
    6.6803   -3.0332  -21.0467 C   0  0  0  0  0  0  0  0  0  0  0  0
    4.9174   -5.0394  -23.4373 N   0  0  0  0  0  0  0  0  0  0  0  0
    3.6261   -4.6795  -23.2399 C   0  0  0  0  0  0  0  0  0  0  0  0
    7.6061   -5.2118  -23.2204 H   0  0  0  0  0  0  0  0  0  0  0  0
    6.8260   -2.0780  -19.9052 C   0  0  0  0  0  0  0  0  0  0  0  0
    6.7385   -2.7720  -18.5530 C   0  0  0  0  0  0  0  0  0  0  0  0
 15 16  1  0  0  0
 16 14  1  0  0  0
 14 11  1  0  0  0
 11 12  2  0  0  0
 11 13  2  0  0  0
 11  9  1  0  0  0
  9  1  1  0  0  0
  1  2  2  0  0  0
  2  3  1  0  0  0
  3  4  2  0  0  0
  4  5  1  0  0  0
  5  6  2  0  0  0
  1  6  1  0  0  0
  4  7  1  0  0  0
  3 17  1  0  0  0
 17 18  2  0  0  0
 17 19  1  0  0  0
 19 20  1  0  0  0
 20 21  2  0  0  0
 21 22  1  0  0  0
 22 23  2  0  0  0
 23 24  1  0  0  0
 24 25  1  0  0  0
 25 26  2  0  0  0
 22 26  1  0  0  0
 26 30  1  0  0  0
 30 31  1  0  0  0
 23 27  1  0  0  0
 27 28  2  0  0  0
 20 28  1  0  0  0
  2  8  1  0  0  0
  9 10  1  0  0  0
 24 29  1  0  0  0
M  END
> <minimizedAffinity>
-9.75854

$$$$
mol_58251971_17


 29 31  0  0  0  0  0  0  0  0999 V2000
    0.9807   -3.3628  -20.6828 C   0  0  0  0  0  0  0  0  0  0  0  0
    1.9963   -2.7913  -19.9074 C   0  0  0  0  0  0  0  0  0  0  0  0
    3.3066   -2.6112  -20.3962 C   0  0  0  0  0  0  0  0  0  0  0  0
    3.5990   -3.1641  -21.6615 C   0  0  0  0  0  0  0  0  0  0  0  0
    2.5280   -3.5579  -22.4914 C   0  0  0  0  0  0  0  0  0  0  0  0
    1.2189   -3.6034  -22.0214 C   0  0  0  0  0  0  0  0  0  0  0  0
    4.9668   -3.5112  -22.1732 C   0  0  0  0  0  0  0  0  0  0  0  0
    1.6820   -2.4920  -18.6345 F   0  0  0  0  0  0  0  0  0  0  0  0
   -0.2738   -3.6491  -20.0617 N   0  0  0  0  0  0  0  0  0  0  0  0
   -0.4242   -4.6280  -19.8000 H   0  0  0  0  0  0  0  0  0  0  0  0
   -1.6920   -2.8853  -20.5408 S   0  0  0  0  0  0  0  0  0  0  0  0
   -2.4540   -2.5384  -19.3595 O   0  0  0  0  0  0  0  0  0  0  0  0
   -2.2563   -3.7602  -21.5465 O   0  0  0  0  0  0  0  0  0  0  0  0
   -1.1549   -1.3801  -21.3858 C   0  0  0  0  0  0  0  0  0  0  0  0
    0.5021    0.5039  -20.8649 C   0  0  0  0  0  0  0  0  0  0  0  0
   -0.7699   -0.2232  -20.4622 C   0  0  0  0  0  0  0  0  0  0  0  0
    4.2213   -1.7889  -19.5191 C   0  0  0  0  0  0  0  0  0  0  0  0
    4.3555   -0.5862  -19.7638 O   0  0  0  0  0  0  0  0  0  0  0  0
    5.0318   -2.3692  -18.3763 C   0  0  0  0  0  0  0  0  0  0  0  0
    6.4073   -2.8141  -18.7831 C   0  0  0  0  0  0  0  0  0  0  0  0
    6.9495   -3.9984  -18.2804 C   0  0  0  0  0  0  0  0  0  0  0  0
    8.2211   -4.4248  -18.4515 N   0  0  0  0  0  0  0  0  0  0  0  0
    8.9473   -3.5967  -19.2233 C   0  0  0  0  0  0  0  0  0  0  0  0
    8.5178   -2.4405  -19.8623 C   0  0  0  0  0  0  0  0  0  0  0  0
    7.1884   -2.0479  -19.6600 C   0  0  0  0  0  0  0  0  0  0  0  0
    9.6281   -1.9257  -20.5812 C   0  0  0  0  0  0  0  0  0  0  0  0
   10.7056   -2.7472  -20.3233 C   0  0  0  0  0  0  0  0  0  0  0  0
   10.2759   -3.7594  -19.5022 N   0  0  0  0  0  0  0  0  0  0  0  0
   10.8349   -4.5143  -19.1333 H   0  0  0  0  0  0  0  0  0  0  0  0
 15 16  1  0  0  0
 16 14  1  0  0  0
 14 11  1  0  0  0
 11 12  2  0  0  0
 11 13  2  0  0  0
 11  9  1  0  0  0
  9  1  1  0  0  0
  1  2  2  0  0  0
  2  3  1  0  0  0
  3  4  2  0  0  0
  4  5  1  0  0  0
  5  6  2  0  0  0
  1  6  1  0  0  0
  4  7  1  0  0  0
  3 17  1  0  0  0
 17 18  2  0  0  0
 17 19  1  0  0  0
 19 20  1  0  0  0
 20 21  2  0  0  0
 21 22  1  0  0  0
 22 23  2  0  0  0
 23 24  1  0  0  0
 24 25  2  0  0  0
 20 25  1  0  0  0
 24 26  1  0  0  0
 26 27  2  0  0  0
 27 28  1  0  0  0
 23 28  1  0  0  0
  2  8  1  0  0  0
  9 10  1  0  0  0
 28 29  1  0  0  0
M  END
> <minimizedAffinity>
-8.90092

$$$$
mol_58251971_17


 29 31  0  0  0  0  0  0  0  0999 V2000
    2.0950   -1.5311  -20.1280 C   0  0  0  0  0  0  0  0  0  0  0  0
    1.9098   -2.7024  -20.8716 C   0  0  0  0  0  0  0  0  0  0  0  0
    0.6401   -3.1122  -21.3279 C   0  0  0  0  0  0  0  0  0  0  0  0
   -0.4716   -2.3655  -20.8822 C   0  0  0  0  0  0  0  0  0  0  0  0
   -0.2471   -1.0987  -20.3028 C   0  0  0  0  0  0  0  0  0  0  0  0
    1.0336   -0.6608  -19.9789 C   0  0  0  0  0  0  0  0  0  0  0  0
   -1.8920   -2.8486  -20.8349 C   0  0  0  0  0  0  0  0  0  0  0  0
    2.9982   -3.4684  -21.0645 F   0  0  0  0  0  0  0  0  0  0  0  0
    3.3865   -1.2701  -19.5752 N   0  0  0  0  0  0  0  0  0  0  0  0
    4.1367   -1.1204  -20.2564 H   0  0  0  0  0  0  0  0  0  0  0  0
    3.9250   -2.0433  -18.1836 S   0  0  0  0  0  0  0  0  0  0  0  0
    2.9206   -2.9989  -17.7657 O   0  0  0  0  0  0  0  0  0  0  0  0
    4.3268   -0.9687  -17.3010 O   0  0  0  0  0  0  0  0  0  0  0  0
    5.4290   -2.9147  -18.6800 C   0  0  0  0  0  0  0  0  0  0  0  0
    6.2932   -2.9579  -21.0921 C   0  0  0  0  0  0  0  0  0  0  0  0
    6.2509   -2.2178  -19.7657 C   0  0  0  0  0  0  0  0  0  0  0  0
    0.6391   -4.2739  -22.2936 C   0  0  0  0  0  0  0  0  0  0  0  0
    0.1969   -5.3620  -21.9131 O   0  0  0  0  0  0  0  0  0  0  0  0
    1.2016   -4.1958  -23.6998 C   0  0  0  0  0  0  0  0  0  0  0  0
    2.3303   -5.1551  -23.9473 C   0  0  0  0  0  0  0  0  0  0  0  0
    2.1136   -6.3423  -24.6495 C   0  0  0  0  0  0  0  0  0  0  0  0
    3.0053   -7.3467  -24.8050 N   0  0  0  0  0  0  0  0  0  0  0  0
    4.1951   -7.0774  -24.2389 C   0  0  0  0  0  0  0  0  0  0  0  0
    4.5806   -5.9094  -23.5933 C   0  0  0  0  0  0  0  0  0  0  0  0
    3.6220   -4.8958  -23.4675 C   0  0  0  0  0  0  0  0  0  0  0  0
    5.9309   -6.0824  -23.1917 C   0  0  0  0  0  0  0  0  0  0  0  0
    6.3117   -7.3568  -23.5568 C   0  0  0  0  0  0  0  0  0  0  0  0
    5.2498   -7.9464  -24.1956 N   0  0  0  0  0  0  0  0  0  0  0  0
    5.2180   -8.8815  -24.5739 H   0  0  0  0  0  0  0  0  0  0  0  0
 15 16  1  0  0  0
 16 14  1  0  0  0
 14 11  1  0  0  0
 11 12  2  0  0  0
 11 13  2  0  0  0
 11  9  1  0  0  0
  9  1  1  0  0  0
  1  2  2  0  0  0
  2  3  1  0  0  0
  3  4  2  0  0  0
  4  5  1  0  0  0
  5  6  2  0  0  0
  1  6  1  0  0  0
  4  7  1  0  0  0
  3 17  1  0  0  0
 17 18  2  0  0  0
 17 19  1  0  0  0
 19 20  1  0  0  0
 20 21  2  0  0  0
 21 22  1  0  0  0
 22 23  2  0  0  0
 23 24  1  0  0  0
 24 25  2  0  0  0
 20 25  1  0  0  0
 24 26  1  0  0  0
 26 27  2  0  0  0
 27 28  1  0  0  0
 23 28  1  0  0  0
  2  8  1  0  0  0
  9 10  1  0  0  0
 28 29  1  0  0  0
M  END
> <minimizedAffinity>
-8.79004

$$$$
mol_58251971_17


 29 31  0  0  0  0  0  0  0  0999 V2000
    2.0451   -2.8835  -19.6742 C   0  0  0  0  0  0  0  0  0  0  0  0
    3.1279   -2.6339  -20.5253 C   0  0  0  0  0  0  0  0  0  0  0  0
    4.4358   -2.4279  -20.0400 C   0  0  0  0  0  0  0  0  0  0  0  0
    4.5922   -2.3397  -18.6401 C   0  0  0  0  0  0  0  0  0  0  0  0
    3.5374   -2.7798  -17.8126 C   0  0  0  0  0  0  0  0  0  0  0  0
    2.2879   -3.1035  -18.3329 C   0  0  0  0  0  0  0  0  0  0  0  0
    5.7370   -1.6843  -17.9240 C   0  0  0  0  0  0  0  0  0  0  0  0
    2.8466   -2.5193  -21.8354 F   0  0  0  0  0  0  0  0  0  0  0  0
    0.7317   -2.9278  -20.2350 N   0  0  0  0  0  0  0  0  0  0  0  0
    0.5883   -3.6267  -20.9700 H   0  0  0  0  0  0  0  0  0  0  0  0
   -0.1682   -1.5315  -20.4895 S   0  0  0  0  0  0  0  0  0  0  0  0
    0.0513   -1.0792  -21.8474 O   0  0  0  0  0  0  0  0  0  0  0  0
    0.1608   -0.6757  -19.3694 O   0  0  0  0  0  0  0  0  0  0  0  0
   -1.8917   -2.0371  -20.2845 C   0  0  0  0  0  0  0  0  0  0  0  0
   -4.2750   -1.7503  -21.1813 C   0  0  0  0  0  0  0  0  0  0  0  0
   -2.9188   -1.1102  -20.9370 C   0  0  0  0  0  0  0  0  0  0  0  0
    5.5209   -2.3875  -21.0902 C   0  0  0  0  0  0  0  0  0  0  0  0
    5.9572   -1.2905  -21.4514 O   0  0  0  0  0  0  0  0  0  0  0  0
    6.0757   -3.6241  -21.7706 C   0  0  0  0  0  0  0  0  0  0  0  0
    5.4126   -3.9343  -23.0820 C   0  0  0  0  0  0  0  0  0  0  0  0
    5.4164   -2.9999  -24.1194 C   0  0  0  0  0  0  0  0  0  0  0  0
    4.7320   -3.1007  -25.2811 N   0  0  0  0  0  0  0  0  0  0  0  0
    4.0479   -4.2541  -25.3826 C   0  0  0  0  0  0  0  0  0  0  0  0
    4.0252   -5.3076  -24.4774 C   0  0  0  0  0  0  0  0  0  0  0  0
    4.7591   -5.1566  -23.2939 C   0  0  0  0  0  0  0  0  0  0  0  0
    3.1892   -6.3128  -25.0299 C   0  0  0  0  0  0  0  0  0  0  0  0
    2.6913   -5.8287  -26.2217 C   0  0  0  0  0  0  0  0  0  0  0  0
    3.2252   -4.5808  -26.4247 N   0  0  0  0  0  0  0  0  0  0  0  0
    3.0459   -3.9688  -27.2068 H   0  0  0  0  0  0  0  0  0  0  0  0
 15 16  1  0  0  0
 16 14  1  0  0  0
 14 11  1  0  0  0
 11 12  2  0  0  0
 11 13  2  0  0  0
 11  9  1  0  0  0
  9  1  1  0  0  0
  1  2  2  0  0  0
  2  3  1  0  0  0
  3  4  2  0  0  0
  4  5  1  0  0  0
  5  6  2  0  0  0
  1  6  1  0  0  0
  4  7  1  0  0  0
  3 17  1  0  0  0
 17 18  2  0  0  0
 17 19  1  0  0  0
 19 20  1  0  0  0
 20 21  2  0  0  0
 21 22  1  0  0  0
 22 23  2  0  0  0
 23 24  1  0  0  0
 24 25  2  0  0  0
 20 25  1  0  0  0
 24 26  1  0  0  0
 26 27  2  0  0  0
 27 28  1  0  0  0
 23 28  1  0  0  0
  2  8  1  0  0  0
  9 10  1  0  0  0
 28 29  1  0  0  0
M  END
> <minimizedAffinity>
-8.62608

$$$$
mol_58252041_18


 29 31  0  0  0  0  0  0  0  0999 V2000
   -2.4930   -2.4092  -20.7203 C   0  0  0  0  0  0  0  0  0  0  0  0
   -1.1051   -2.6518  -20.5611 C   0  0  0  0  0  0  0  0  0  0  0  0
   -0.2426   -1.5592  -20.2868 C   0  0  0  0  0  0  0  0  0  0  0  0
   -0.7676   -0.2611  -20.4701 C   0  0  0  0  0  0  0  0  0  0  0  0
   -2.0987   -0.0386  -20.8176 C   0  0  0  0  0  0  0  0  0  0  0  0
   -2.9737   -1.1097  -20.8932 C   0  0  0  0  0  0  0  0  0  0  0  0
   -0.0147    0.8375  -20.3155 F   0  0  0  0  0  0  0  0  0  0  0  0
   -0.5995   -4.0397  -20.8293 C   0  0  0  0  0  0  0  0  0  0  0  0
   -3.4804   -3.4421  -20.7024 N   0  0  0  0  0  0  0  0  0  0  0  0
   -3.8101   -3.7723  -21.6117 H   0  0  0  0  0  0  0  0  0  0  0  0
   -4.7703   -3.4281  -19.6136 S   0  0  0  0  0  0  0  0  0  0  0  0
   -5.2970   -4.7680  -19.4752 O   0  0  0  0  0  0  0  0  0  0  0  0
   -5.6227   -2.3619  -20.0998 O   0  0  0  0  0  0  0  0  0  0  0  0
   -4.0881   -2.8761  -18.0357 C   0  0  0  0  0  0  0  0  0  0  0  0
   -5.4968   -3.0198  -15.9207 C   0  0  0  0  0  0  0  0  0  0  0  0
   -5.1021   -2.1905  -17.1306 C   0  0  0  0  0  0  0  0  0  0  0  0
    1.1917   -1.6323  -19.7940 C   0  0  0  0  0  0  0  0  0  0  0  0
    1.4436   -1.2710  -18.6406 O   0  0  0  0  0  0  0  0  0  0  0  0
    2.3500   -2.1777  -20.6216 C   0  0  0  0  0  0  0  0  0  0  0  0
    3.6602   -2.3351  -19.8975 C   0  0  0  0  0  0  0  0  0  0  0  0
    3.7379   -2.9226  -18.6329 C   0  0  0  0  0  0  0  0  0  0  0  0
    4.8767   -3.1795  -17.9387 N   0  0  0  0  0  0  0  0  0  0  0  0
    5.9889   -2.8243  -18.6078 C   0  0  0  0  0  0  0  0  0  0  0  0
    6.0624   -2.1926  -19.8413 C   0  0  0  0  0  0  0  0  0  0  0  0
    4.8525   -1.8741  -20.4732 C   0  0  0  0  0  0  0  0  0  0  0  0
    7.4376   -2.0936  -20.1820 C   0  0  0  0  0  0  0  0  0  0  0  0
    8.1588   -2.6753  -19.1603 C   0  0  0  0  0  0  0  0  0  0  0  0
    7.2695   -3.0688  -18.1900 N   0  0  0  0  0  0  0  0  0  0  0  0
    7.4956   -3.5292  -17.3210 H   0  0  0  0  0  0  0  0  0  0  0  0
 15 16  1  0  0  0
 16 14  1  0  0  0
 14 11  1  0  0  0
 11 12  2  0  0  0
 11 13  2  0  0  0
 11  9  1  0  0  0
  9  1  1  0  0  0
  1  2  2  0  0  0
  2  3  1  0  0  0
  3  4  2  0  0  0
  4  5  1  0  0  0
  5  6  2  0  0  0
  1  6  1  0  0  0
  4  7  1  0  0  0
  3 17  1  0  0  0
 17 18  2  0  0  0
 17 19  1  0  0  0
 19 20  1  0  0  0
 20 21  2  0  0  0
 21 22  1  0  0  0
 22 23  2  0  0  0
 23 24  1  0  0  0
 24 25  2  0  0  0
 20 25  1  0  0  0
 24 26  1  0  0  0
 26 27  2  0  0  0
 27 28  1  0  0  0
 23 28  1  0  0  0
  2  8  1  0  0  0
  9 10  1  0  0  0
 28 29  1  0  0  0
M  END
> <minimizedAffinity>
-10.71016

$$$$
mol_58252041_18


 29 31  0  0  0  0  0  0  0  0999 V2000
   -2.4004   -2.2413  -20.7088 C   0  0  0  0  0  0  0  0  0  0  0  0
   -1.0864   -2.7736  -20.7292 C   0  0  0  0  0  0  0  0  0  0  0  0
    0.0083   -1.9149  -20.4514 C   0  0  0  0  0  0  0  0  0  0  0  0
   -0.2453   -0.5257  -20.4519 C   0  0  0  0  0  0  0  0  0  0  0  0
   -1.5252   -0.0026  -20.6261 C   0  0  0  0  0  0  0  0  0  0  0  0
   -2.6096   -0.8608  -20.7040 C   0  0  0  0  0  0  0  0  0  0  0  0
    0.7332    0.3746  -20.2798 F   0  0  0  0  0  0  0  0  0  0  0  0
   -0.9113   -4.1944  -21.1816 C   0  0  0  0  0  0  0  0  0  0  0  0
   -3.5779   -3.0505  -20.6780 N   0  0  0  0  0  0  0  0  0  0  0  0
   -4.3435   -2.7635  -21.2913 H   0  0  0  0  0  0  0  0  0  0  0  0
   -4.2151   -3.6486  -19.2338 S   0  0  0  0  0  0  0  0  0  0  0  0
   -3.1411   -4.1557  -18.4083 O   0  0  0  0  0  0  0  0  0  0  0  0
   -5.2773   -4.5352  -19.6645 O   0  0  0  0  0  0  0  0  0  0  0  0
   -5.0024   -2.2456  -18.4145 C   0  0  0  0  0  0  0  0  0  0  0  0
   -5.5536   -3.0546  -16.0650 C   0  0  0  0  0  0  0  0  0  0  0  0
   -4.6937   -2.1464  -16.9270 C   0  0  0  0  0  0  0  0  0  0  0  0
    1.4332   -2.3301  -20.1309 C   0  0  0  0  0  0  0  0  0  0  0  0
    1.6431   -3.0031  -19.1173 O   0  0  0  0  0  0  0  0  0  0  0  0
    2.6328   -2.0114  -21.0159 C   0  0  0  0  0  0  0  0  0  0  0  0
    3.0842   -3.1141  -21.9358 C   0  0  0  0  0  0  0  0  0  0  0  0
    4.4358   -3.4134  -22.1203 C   0  0  0  0  0  0  0  0  0  0  0  0
    4.9347   -4.4354  -22.8629 N   0  0  0  0  0  0  0  0  0  0  0  0
    3.9739   -5.1934  -23.4225 C   0  0  0  0  0  0  0  0  0  0  0  0
    2.6023   -4.9897  -23.3653 C   0  0  0  0  0  0  0  0  0  0  0  0
    2.1481   -3.8696  -22.6557 C   0  0  0  0  0  0  0  0  0  0  0  0
    1.9866   -6.0831  -24.0305 C   0  0  0  0  0  0  0  0  0  0  0  0
    2.9919   -6.9238  -24.4605 C   0  0  0  0  0  0  0  0  0  0  0  0
    4.1931   -6.3459  -24.1282 N   0  0  0  0  0  0  0  0  0  0  0  0
    5.1107   -6.7250  -24.3082 H   0  0  0  0  0  0  0  0  0  0  0  0
 15 16  1  0  0  0
 16 14  1  0  0  0
 14 11  1  0  0  0
 11 12  2  0  0  0
 11 13  2  0  0  0
 11  9  1  0  0  0
  9  1  1  0  0  0
  1  2  2  0  0  0
  2  3  1  0  0  0
  3  4  2  0  0  0
  4  5  1  0  0  0
  5  6  2  0  0  0
  1  6  1  0  0  0
  4  7  1  0  0  0
  3 17  1  0  0  0
 17 18  2  0  0  0
 17 19  1  0  0  0
 19 20  1  0  0  0
 20 21  2  0  0  0
 21 22  1  0  0  0
 22 23  2  0  0  0
 23 24  1  0  0  0
 24 25  2  0  0  0
 20 25  1  0  0  0
 24 26  1  0  0  0
 26 27  2  0  0  0
 27 28  1  0  0  0
 23 28  1  0  0  0
  2  8  1  0  0  0
  9 10  1  0  0  0
 28 29  1  0  0  0
M  END
> <minimizedAffinity>
-10.13759

$$$$
mol_58252041_18


 29 31  0  0  0  0  0  0  0  0999 V2000
   -2.3794   -2.3604  -20.6521 C   0  0  0  0  0  0  0  0  0  0  0  0
   -0.9753   -2.5570  -20.6562 C   0  0  0  0  0  0  0  0  0  0  0  0
   -0.1238   -1.4432  -20.4384 C   0  0  0  0  0  0  0  0  0  0  0  0
   -0.7082   -0.1599  -20.5144 C   0  0  0  0  0  0  0  0  0  0  0  0
   -2.0764    0.0250  -20.7045 C   0  0  0  0  0  0  0  0  0  0  0  0
   -2.9188   -1.0744  -20.7227 C   0  0  0  0  0  0  0  0  0  0  0  0
    0.0208    0.9598  -20.4033 F   0  0  0  0  0  0  0  0  0  0  0  0
   -0.4576   -3.9158  -21.0297 C   0  0  0  0  0  0  0  0  0  0  0  0
   -3.3244   -3.4288  -20.5637 N   0  0  0  0  0  0  0  0  0  0  0  0
   -3.5190   -3.9370  -21.4288 H   0  0  0  0  0  0  0  0  0  0  0  0
   -4.7469   -3.2931  -19.6650 S   0  0  0  0  0  0  0  0  0  0  0  0
   -4.4834   -2.5395  -18.4589 O   0  0  0  0  0  0  0  0  0  0  0  0
   -5.2317   -4.6557  -19.5757 O   0  0  0  0  0  0  0  0  0  0  0  0
   -5.9125   -2.3885  -20.7056 C   0  0  0  0  0  0  0  0  0  0  0  0
   -6.8199   -1.9905  -23.0500 C   0  0  0  0  0  0  0  0  0  0  0  0
   -5.8298   -2.7483  -22.1825 C   0  0  0  0  0  0  0  0  0  0  0  0
    1.3582   -1.4800  -20.1099 C   0  0  0  0  0  0  0  0  0  0  0  0
    2.1418   -0.8484  -20.8249 O   0  0  0  0  0  0  0  0  0  0  0  0
    1.9466   -2.2126  -18.9095 C   0  0  0  0  0  0  0  0  0  0  0  0
    3.4471   -2.1872  -18.7931 C   0  0  0  0  0  0  0  0  0  0  0  0
    4.0960   -1.4809  -17.7778 C   0  0  0  0  0  0  0  0  0  0  0  0
    5.4339   -1.4638  -17.5444 N   0  0  0  0  0  0  0  0  0  0  0  0
    6.1246   -2.2389  -18.4005 C   0  0  0  0  0  0  0  0  0  0  0  0
    5.6231   -2.9547  -19.4786 C   0  0  0  0  0  0  0  0  0  0  0  0
    4.2458   -2.8668  -19.7234 C   0  0  0  0  0  0  0  0  0  0  0  0
    6.7050   -3.6846  -20.0388 C   0  0  0  0  0  0  0  0  0  0  0  0
    7.8255   -3.4059  -19.2844 C   0  0  0  0  0  0  0  0  0  0  0  0
    7.4685   -2.4892  -18.3255 N   0  0  0  0  0  0  0  0  0  0  0  0
    8.0720   -2.0941  -17.6200 H   0  0  0  0  0  0  0  0  0  0  0  0
 15 16  1  0  0  0
 16 14  1  0  0  0
 14 11  1  0  0  0
 11 12  2  0  0  0
 11 13  2  0  0  0
 11  9  1  0  0  0
  9  1  1  0  0  0
  1  2  2  0  0  0
  2  3  1  0  0  0
  3  4  2  0  0  0
  4  5  1  0  0  0
  5  6  2  0  0  0
  1  6  1  0  0  0
  4  7  1  0  0  0
  3 17  1  0  0  0
 17 18  2  0  0  0
 17 19  1  0  0  0
 19 20  1  0  0  0
 20 21  2  0  0  0
 21 22  1  0  0  0
 22 23  2  0  0  0
 23 24  1  0  0  0
 24 25  2  0  0  0
 20 25  1  0  0  0
 24 26  1  0  0  0
 26 27  2  0  0  0
 27 28  1  0  0  0
 23 28  1  0  0  0
  2  8  1  0  0  0
  9 10  1  0  0  0
 28 29  1  0  0  0
M  END
> <minimizedAffinity>
-10.06505

$$$$
mol_58095356_19


 36 39  0  0  0  0  0  0  0  0999 V2000
    1.4069   -2.4538  -20.3263 C   0  0  0  0  0  0  0  0  0  0  0  0
    1.6593   -3.0357  -19.2718 O   0  0  0  0  0  0  0  0  0  0  0  0
   -2.3655   -2.3392  -20.6958 C   0  0  0  0  0  0  0  0  0  0  0  0
   -1.0461   -2.7988  -20.5615 C   0  0  0  0  0  0  0  0  0  0  0  0
    0.0388   -1.9147  -20.5231 C   0  0  0  0  0  0  0  0  0  0  0  0
   -0.2103   -0.5529  -20.6510 C   0  0  0  0  0  0  0  0  0  0  0  0
   -1.5161   -0.0761  -20.7310 C   0  0  0  0  0  0  0  0  0  0  0  0
   -2.5922   -0.9670  -20.7034 C   0  0  0  0  0  0  0  0  0  0  0  0
    0.7868    0.3398  -20.6678 F   0  0  0  0  0  0  0  0  0  0  0  0
   -0.8440   -4.1272  -20.5307 F   0  0  0  0  0  0  0  0  0  0  0  0
   -3.4109   -3.3096  -20.7357 N   0  0  0  0  0  0  0  0  0  0  0  0
   -3.5239   -3.8470  -21.6002 H   0  0  0  0  0  0  0  0  0  0  0  0
   -4.7539   -3.3288  -19.7412 S   0  0  0  0  0  0  0  0  0  0  0  0
   -5.2525   -4.6825  -19.6314 O   0  0  0  0  0  0  0  0  0  0  0  0
   -5.6003   -2.2726  -20.2525 O   0  0  0  0  0  0  0  0  0  0  0  0
   -4.1245   -2.7687  -18.1494 C   0  0  0  0  0  0  0  0  0  0  0  0
   -5.4223   -3.0541  -15.9641 C   0  0  0  0  0  0  0  0  0  0  0  0
   -5.1732   -2.2003  -17.1965 C   0  0  0  0  0  0  0  0  0  0  0  0
    2.4756   -2.2742  -21.3898 C   0  0  0  0  0  0  0  0  0  0  0  0
    2.7940   -3.4956  -22.2175 C   0  0  0  0  0  0  0  0  0  0  0  0
    4.1028   -3.8677  -22.5461 C   0  0  0  0  0  0  0  0  0  0  0  0
    4.2244   -5.0552  -23.2576 C   0  0  0  0  0  0  0  0  0  0  0  0
    3.1246   -5.7783  -23.6952 C   0  0  0  0  0  0  0  0  0  0  0  0
    1.8528   -5.3942  -23.4614 N   0  0  0  0  0  0  0  0  0  0  0  0
    1.7391   -4.2668  -22.7235 C   0  0  0  0  0  0  0  0  0  0  0  0
    3.5089   -6.9076  -24.3635 N   0  0  0  0  0  0  0  0  0  0  0  0
    4.8256   -6.9144  -24.3119 C   0  0  0  0  0  0  0  0  0  0  0  0
    5.2967   -5.7863  -23.6830 N   0  0  0  0  0  0  0  0  0  0  0  0
    6.2708   -5.5644  -23.5417 H   0  0  0  0  0  0  0  0  0  0  0  0
    5.7189   -7.9346  -24.8338 C   0  0  0  0  0  0  0  0  0  0  0  0
    6.9052   -8.2495  -24.1546 C   0  0  0  0  0  0  0  0  0  0  0  0
    7.7765   -9.2070  -24.6759 C   0  0  0  0  0  0  0  0  0  0  0  0
    7.4598   -9.8409  -25.8723 C   0  0  0  0  0  0  0  0  0  0  0  0
    6.2840   -9.5441  -26.5528 C   0  0  0  0  0  0  0  0  0  0  0  0
    5.4069   -8.5933  -26.0291 C   0  0  0  0  0  0  0  0  0  0  0  0
    8.3012  -10.7527  -26.3760 F   0  0  0  0  0  0  0  0  0  0  0  0
 17 18  1  0  0  0
 18 16  1  0  0  0
 16 13  1  0  0  0
 13 14  2  0  0  0
 13 15  2  0  0  0
 13 11  1  0  0  0
 11  3  1  0  0  0
  3  4  2  0  0  0
  4  5  1  0  0  0
  5  6  2  0  0  0
  6  7  1  0  0  0
  7  8  2  0  0  0
  3  8  1  0  0  0
  6  9  1  0  0  0
  5  1  1  0  0  0
  1  2  2  0  0  0
  1 19  1  0  0  0
 19 20  1  0  0  0
 20 21  2  0  0  0
 21 22  1  0  0  0
 22 23  2  0  0  0
 23 24  1  0  0  0
 24 25  2  0  0  0
 20 25  1  0  0  0
 23 26  1  0  0  0
 26 27  2  0  0  0
 27 28  1  0  0  0
 22 28  1  0  0  0
 27 30  1  0  0  0
 30 31  2  0  0  0
 31 32  1  0  0  0
 32 33  2  0  0  0
 33 34  1  0  0  0
 34 35  2  0  0  0
 30 35  1  0  0  0
 33 36  1  0  0  0
  4 10  1  0  0  0
 11 12  1  0  0  0
 28 29  1  0  0  0
M  END
> <minimizedAffinity>
-10.41059

$$$$
mol_58095356_19


 36 39  0  0  0  0  0  0  0  0999 V2000
    1.3890   -2.3104  -19.9638 C   0  0  0  0  0  0  0  0  0  0  0  0
    1.5351   -2.9391  -18.9162 O   0  0  0  0  0  0  0  0  0  0  0  0
   -2.3321   -2.2793  -20.6939 C   0  0  0  0  0  0  0  0  0  0  0  0
   -1.0227   -2.7095  -20.4282 C   0  0  0  0  0  0  0  0  0  0  0  0
    0.0357   -1.8024  -20.2974 C   0  0  0  0  0  0  0  0  0  0  0  0
   -0.2272   -0.4476  -20.4657 C   0  0  0  0  0  0  0  0  0  0  0  0
   -1.5285    0.0007  -20.6762 C   0  0  0  0  0  0  0  0  0  0  0  0
   -2.5843   -0.9123  -20.7404 C   0  0  0  0  0  0  0  0  0  0  0  0
    0.7489    0.4656  -20.3984 F   0  0  0  0  0  0  0  0  0  0  0  0
   -0.7981   -4.0330  -20.3615 F   0  0  0  0  0  0  0  0  0  0  0  0
   -3.3493   -3.2719  -20.8213 N   0  0  0  0  0  0  0  0  0  0  0  0
   -3.3593   -3.8305  -21.6796 H   0  0  0  0  0  0  0  0  0  0  0  0
   -4.7904   -3.2969  -19.9753 S   0  0  0  0  0  0  0  0  0  0  0  0
   -5.2479   -4.6631  -19.8439 O   0  0  0  0  0  0  0  0  0  0  0  0
   -5.6146   -2.3051  -20.6312 O   0  0  0  0  0  0  0  0  0  0  0  0
   -4.3577   -2.6298  -18.3593 C   0  0  0  0  0  0  0  0  0  0  0  0
   -5.3435   -2.9629  -16.0229 C   0  0  0  0  0  0  0  0  0  0  0  0
   -4.5767   -3.5773  -17.1823 C   0  0  0  0  0  0  0  0  0  0  0  0
    2.5692   -2.0437  -20.8811 C   0  0  0  0  0  0  0  0  0  0  0  0
    2.8801   -3.1252  -21.8872 C   0  0  0  0  0  0  0  0  0  0  0  0
    1.8844   -3.8285  -22.5750 C   0  0  0  0  0  0  0  0  0  0  0  0
    2.3421   -4.7445  -23.5147 C   0  0  0  0  0  0  0  0  0  0  0  0
    3.6902   -5.0147  -23.6974 C   0  0  0  0  0  0  0  0  0  0  0  0
    4.6636   -4.4088  -22.9868 N   0  0  0  0  0  0  0  0  0  0  0  0
    4.2170   -3.4803  -22.1112 C   0  0  0  0  0  0  0  0  0  0  0  0
    3.8794   -5.9445  -24.6819 N   0  0  0  0  0  0  0  0  0  0  0  0
    2.6746   -6.2236  -25.1366 C   0  0  0  0  0  0  0  0  0  0  0  0
    1.7136   -5.5441  -24.4263 N   0  0  0  0  0  0  0  0  0  0  0  0
    0.7191   -5.6126  -24.5825 H   0  0  0  0  0  0  0  0  0  0  0  0
    2.3346   -7.1213  -26.2274 C   0  0  0  0  0  0  0  0  0  0  0  0
    1.6641   -8.3259  -25.9683 C   0  0  0  0  0  0  0  0  0  0  0  0
    1.3679   -9.2007  -27.0146 C   0  0  0  0  0  0  0  0  0  0  0  0
    1.7455   -8.8691  -28.3111 C   0  0  0  0  0  0  0  0  0  0  0  0
    2.4042   -7.6752  -28.5840 C   0  0  0  0  0  0  0  0  0  0  0  0
    2.6938   -6.7948  -27.5405 C   0  0  0  0  0  0  0  0  0  0  0  0
    1.4688   -9.7136  -29.3128 F   0  0  0  0  0  0  0  0  0  0  0  0
 17 18  1  0  0  0
 18 16  1  0  0  0
 16 13  1  0  0  0
 13 14  2  0  0  0
 13 15  2  0  0  0
 13 11  1  0  0  0
 11  3  1  0  0  0
  3  4  2  0  0  0
  4  5  1  0  0  0
  5  6  2  0  0  0
  6  7  1  0  0  0
  7  8  2  0  0  0
  3  8  1  0  0  0
  6  9  1  0  0  0
  5  1  1  0  0  0
  1  2  2  0  0  0
  1 19  1  0  0  0
 19 20  1  0  0  0
 20 21  2  0  0  0
 21 22  1  0  0  0
 22 23  2  0  0  0
 23 24  1  0  0  0
 24 25  2  0  0  0
 20 25  1  0  0  0
 23 26  1  0  0  0
 26 27  2  0  0  0
 27 28  1  0  0  0
 22 28  1  0  0  0
 27 30  1  0  0  0
 30 31  2  0  0  0
 31 32  1  0  0  0
 32 33  2  0  0  0
 33 34  1  0  0  0
 34 35  2  0  0  0
 30 35  1  0  0  0
 33 36  1  0  0  0
  4 10  1  0  0  0
 11 12  1  0  0  0
 28 29  1  0  0  0
M  END
> <minimizedAffinity>
-10.23662

$$$$
mol_58095356_19


 36 39  0  0  0  0  0  0  0  0999 V2000
    7.0754   -3.0992  -20.3322 C   0  0  0  0  0  0  0  0  0  0  0  0
    7.7724   -2.1189  -20.5918 O   0  0  0  0  0  0  0  0  0  0  0  0
    6.2225   -4.8989  -23.5593 C   0  0  0  0  0  0  0  0  0  0  0  0
    6.3050   -3.9294  -22.5477 C   0  0  0  0  0  0  0  0  0  0  0  0
    6.9747   -4.1795  -21.3440 C   0  0  0  0  0  0  0  0  0  0  0  0
    7.5425   -5.4335  -21.1489 C   0  0  0  0  0  0  0  0  0  0  0  0
    7.5167   -6.3881  -22.1623 C   0  0  0  0  0  0  0  0  0  0  0  0
    6.9000   -6.1007  -23.3827 C   0  0  0  0  0  0  0  0  0  0  0  0
    8.1565   -5.7503  -20.0027 F   0  0  0  0  0  0  0  0  0  0  0  0
    5.6659   -2.7631  -22.7424 F   0  0  0  0  0  0  0  0  0  0  0  0
    5.5126   -4.5636  -24.7508 N   0  0  0  0  0  0  0  0  0  0  0  0
    5.7242   -3.6625  -25.1890 H   0  0  0  0  0  0  0  0  0  0  0  0
    4.0576   -5.2303  -25.2321 S   0  0  0  0  0  0  0  0  0  0  0  0
    4.3018   -6.4959  -25.8894 O   0  0  0  0  0  0  0  0  0  0  0  0
    3.3791   -4.1588  -25.9284 O   0  0  0  0  0  0  0  0  0  0  0  0
    3.1685   -5.4948  -23.6883 C   0  0  0  0  0  0  0  0  0  0  0  0
    0.8129   -4.5202  -23.4815 C   0  0  0  0  0  0  0  0  0  0  0  0
    2.2989   -4.3274  -23.2279 C   0  0  0  0  0  0  0  0  0  0  0  0
    6.3541   -3.2092  -19.0007 C   0  0  0  0  0  0  0  0  0  0  0  0
    4.9405   -2.6805  -18.9710 C   0  0  0  0  0  0  0  0  0  0  0  0
    4.0237   -2.9115  -20.0032 C   0  0  0  0  0  0  0  0  0  0  0  0
    2.7450   -2.4116  -19.7880 C   0  0  0  0  0  0  0  0  0  0  0  0
    2.4179   -1.6555  -18.6721 C   0  0  0  0  0  0  0  0  0  0  0  0
    3.3076   -1.3504  -17.7052 N   0  0  0  0  0  0  0  0  0  0  0  0
    4.5364   -1.8829  -17.8920 C   0  0  0  0  0  0  0  0  0  0  0  0
    1.1004   -1.2903  -18.6907 N   0  0  0  0  0  0  0  0  0  0  0  0
    0.5995   -1.8406  -19.7781 C   0  0  0  0  0  0  0  0  0  0  0  0
    1.5763   -2.4960  -20.4896 N   0  0  0  0  0  0  0  0  0  0  0  0
    1.4329   -2.9773  -21.3648 H   0  0  0  0  0  0  0  0  0  0  0  0
   -0.7811   -1.7943  -20.2289 C   0  0  0  0  0  0  0  0  0  0  0  0
   -1.3683   -0.5704  -20.5824 C   0  0  0  0  0  0  0  0  0  0  0  0
   -2.7041   -0.5256  -20.9839 C   0  0  0  0  0  0  0  0  0  0  0  0
   -3.4454   -1.7013  -21.0267 C   0  0  0  0  0  0  0  0  0  0  0  0
   -2.8746   -2.9228  -20.6861 C   0  0  0  0  0  0  0  0  0  0  0  0
   -1.5365   -2.9714  -20.2925 C   0  0  0  0  0  0  0  0  0  0  0  0
   -4.7296   -1.6555  -21.4034 F   0  0  0  0  0  0  0  0  0  0  0  0
 17 18  1  0  0  0
 18 16  1  0  0  0
 16 13  1  0  0  0
 13 14  2  0  0  0
 13 15  2  0  0  0
 13 11  1  0  0  0
 11  3  1  0  0  0
  3  4  2  0  0  0
  4  5  1  0  0  0
  5  6  2  0  0  0
  6  7  1  0  0  0
  7  8  2  0  0  0
  3  8  1  0  0  0
  6  9  1  0  0  0
  5  1  1  0  0  0
  1  2  2  0  0  0
  1 19  1  0  0  0
 19 20  1  0  0  0
 20 21  2  0  0  0
 21 22  1  0  0  0
 22 23  2  0  0  0
 23 24  1  0  0  0
 24 25  2  0  0  0
 20 25  1  0  0  0
 23 26  1  0  0  0
 26 27  2  0  0  0
 27 28  1  0  0  0
 22 28  1  0  0  0
 27 30  1  0  0  0
 30 31  2  0  0  0
 31 32  1  0  0  0
 32 33  2  0  0  0
 33 34  1  0  0  0
 34 35  2  0  0  0
 30 35  1  0  0  0
 33 36  1  0  0  0
  4 10  1  0  0  0
 11 12  1  0  0  0
 28 29  1  0  0  0
M  END
> <minimizedAffinity>
-10.23436

$$$$
mol_58095372_20


 35 38  0  0  0  0  0  0  0  0999 V2000
    1.3047   -2.5770  -20.3238 C   0  0  0  0  0  0  0  0  0  0  0  0
    1.9186   -3.0158  -21.2962 O   0  0  0  0  0  0  0  0  0  0  0  0
   -2.4566   -2.3399  -20.7237 C   0  0  0  0  0  0  0  0  0  0  0  0
   -1.1529   -2.8419  -20.6001 C   0  0  0  0  0  0  0  0  0  0  0  0
   -0.0430   -1.9916  -20.5388 C   0  0  0  0  0  0  0  0  0  0  0  0
   -0.2575   -0.6201  -20.6368 C   0  0  0  0  0  0  0  0  0  0  0  0
   -1.5510   -0.1039  -20.7054 C   0  0  0  0  0  0  0  0  0  0  0  0
   -2.6522   -0.9635  -20.6998 C   0  0  0  0  0  0  0  0  0  0  0  0
    0.7612    0.2486  -20.6303 F   0  0  0  0  0  0  0  0  0  0  0  0
   -0.9971   -4.1764  -20.5880 F   0  0  0  0  0  0  0  0  0  0  0  0
   -3.5328   -3.2750  -20.8014 N   0  0  0  0  0  0  0  0  0  0  0  0
   -3.8444   -3.5360  -21.7415 H   0  0  0  0  0  0  0  0  0  0  0  0
   -4.7639   -3.3497  -19.6650 S   0  0  0  0  0  0  0  0  0  0  0  0
   -5.2243   -4.7153  -19.5654 O   0  0  0  0  0  0  0  0  0  0  0  0
   -5.6776   -2.2917  -20.0510 O   0  0  0  0  0  0  0  0  0  0  0  0
   -3.9821   -2.8415  -18.1200 C   0  0  0  0  0  0  0  0  0  0  0  0
   -5.4537   -3.0263  -16.0341 C   0  0  0  0  0  0  0  0  0  0  0  0
   -4.3811   -3.6679  -16.8987 C   0  0  0  0  0  0  0  0  0  0  0  0
    1.9127   -2.6598  -18.9355 C   0  0  0  0  0  0  0  0  0  0  0  0
    3.4076   -2.4716  -18.8677 C   0  0  0  0  0  0  0  0  0  0  0  0
    4.2143   -2.9496  -19.9117 C   0  0  0  0  0  0  0  0  0  0  0  0
    5.5798   -2.7138  -19.7718 C   0  0  0  0  0  0  0  0  0  0  0  0
    6.1035   -2.0648  -18.6627 C   0  0  0  0  0  0  0  0  0  0  0  0
    5.3423   -1.5692  -17.6658 N   0  0  0  0  0  0  0  0  0  0  0  0
    4.0172   -1.7613  -17.8277 C   0  0  0  0  0  0  0  0  0  0  0  0
    7.4638   -1.9988  -18.7199 N   0  0  0  0  0  0  0  0  0  0  0  0
    7.7955   -2.5379  -19.8762 C   0  0  0  0  0  0  0  0  0  0  0  0
    6.6777   -2.9868  -20.5442 N   0  0  0  0  0  0  0  0  0  0  0  0
    6.6835   -3.4476  -21.4424 H   0  0  0  0  0  0  0  0  0  0  0  0
    9.1479   -2.6649  -20.3991 C   0  0  0  0  0  0  0  0  0  0  0  0
    9.9489   -1.5333  -20.5944 C   0  0  0  0  0  0  0  0  0  0  0  0
   11.2675   -1.6735  -21.0336 C   0  0  0  0  0  0  0  0  0  0  0  0
   11.7875   -2.9420  -21.2895 C   0  0  0  0  0  0  0  0  0  0  0  0
   10.9928   -4.0724  -21.1050 C   0  0  0  0  0  0  0  0  0  0  0  0
    9.6787   -3.9347  -20.6545 C   0  0  0  0  0  0  0  0  0  0  0  0
 17 18  1  0  0  0
 18 16  1  0  0  0
 16 13  1  0  0  0
 13 14  2  0  0  0
 13 15  2  0  0  0
 13 11  1  0  0  0
 11  3  1  0  0  0
  3  4  2  0  0  0
  4  5  1  0  0  0
  5  6  2  0  0  0
  6  7  1  0  0  0
  7  8  2  0  0  0
  3  8  1  0  0  0
  6  9  1  0  0  0
  5  1  1  0  0  0
  1  2  2  0  0  0
  1 19  1  0  0  0
 19 20  1  0  0  0
 20 21  2  0  0  0
 21 22  1  0  0  0
 22 23  2  0  0  0
 23 24  1  0  0  0
 24 25  2  0  0  0
 20 25  1  0  0  0
 23 26  1  0  0  0
 26 27  2  0  0  0
 27 28  1  0  0  0
 22 28  1  0  0  0
 27 30  1  0  0  0
 30 31  2  0  0  0
 31 32  1  0  0  0
 32 33  2  0  0  0
 33 34  1  0  0  0
 34 35  2  0  0  0
 30 35  1  0  0  0
  4 10  1  0  0  0
 11 12  1  0  0  0
 28 29  1  0  0  0
M  END
> <minimizedAffinity>
-10.86553

$$$$
mol_58095372_20


 35 38  0  0  0  0  0  0  0  0999 V2000
    1.2262   -2.2897  -20.0282 C   0  0  0  0  0  0  0  0  0  0  0  0
    1.3898   -2.9889  -19.0286 O   0  0  0  0  0  0  0  0  0  0  0  0
   -2.5058   -2.3853  -20.6812 C   0  0  0  0  0  0  0  0  0  0  0  0
   -1.1772   -2.7707  -20.4508 C   0  0  0  0  0  0  0  0  0  0  0  0
   -0.1467   -1.8285  -20.3564 C   0  0  0  0  0  0  0  0  0  0  0  0
   -0.4645   -0.4848  -20.5301 C   0  0  0  0  0  0  0  0  0  0  0  0
   -1.7880   -0.0822  -20.7056 C   0  0  0  0  0  0  0  0  0  0  0  0
   -2.8136   -1.0303  -20.7325 C   0  0  0  0  0  0  0  0  0  0  0  0
    0.4775    0.4659  -20.4970 F   0  0  0  0  0  0  0  0  0  0  0  0
   -0.9148   -4.0859  -20.3683 F   0  0  0  0  0  0  0  0  0  0  0  0
   -3.4948   -3.4098  -20.7861 N   0  0  0  0  0  0  0  0  0  0  0  0
   -3.5571   -3.8945  -21.6863 H   0  0  0  0  0  0  0  0  0  0  0  0
   -4.9628   -3.3507  -19.9772 S   0  0  0  0  0  0  0  0  0  0  0  0
   -5.3700   -4.6977  -19.6511 O   0  0  0  0  0  0  0  0  0  0  0  0
   -5.8013   -2.5100  -20.8099 O   0  0  0  0  0  0  0  0  0  0  0  0
   -4.6092   -2.4244  -18.4695 C   0  0  0  0  0  0  0  0  0  0  0  0
   -5.3453   -3.0387  -16.0964 C   0  0  0  0  0  0  0  0  0  0  0  0
   -4.3655   -3.2857  -17.2315 C   0  0  0  0  0  0  0  0  0  0  0  0
    2.4139   -1.8938  -20.8864 C   0  0  0  0  0  0  0  0  0  0  0  0
    2.9800   -2.9870  -21.7578 C   0  0  0  0  0  0  0  0  0  0  0  0
    2.1133   -3.7808  -22.5243 C   0  0  0  0  0  0  0  0  0  0  0  0
    2.7271   -4.7518  -23.3120 C   0  0  0  0  0  0  0  0  0  0  0  0
    4.1033   -4.9293  -23.3202 C   0  0  0  0  0  0  0  0  0  0  0  0
    4.9547   -4.1555  -22.6165 N   0  0  0  0  0  0  0  0  0  0  0  0
    4.3584   -3.1884  -21.8897 C   0  0  0  0  0  0  0  0  0  0  0  0
    4.4668   -5.9709  -24.1208 N   0  0  0  0  0  0  0  0  0  0  0  0
    3.3475   -6.4068  -24.6638 C   0  0  0  0  0  0  0  0  0  0  0  0
    2.2671   -5.6924  -24.1953 N   0  0  0  0  0  0  0  0  0  0  0  0
    1.3056   -5.8543  -24.4573 H   0  0  0  0  0  0  0  0  0  0  0  0
    3.2347   -7.4966  -25.6219 C   0  0  0  0  0  0  0  0  0  0  0  0
    2.0133   -7.7772  -26.2461 C   0  0  0  0  0  0  0  0  0  0  0  0
    1.9330   -8.7823  -27.2128 C   0  0  0  0  0  0  0  0  0  0  0  0
    3.0686   -9.5176  -27.5519 C   0  0  0  0  0  0  0  0  0  0  0  0
    4.2860   -9.2490  -26.9284 C   0  0  0  0  0  0  0  0  0  0  0  0
    4.3704   -8.2366  -25.9708 C   0  0  0  0  0  0  0  0  0  0  0  0
 17 18  1  0  0  0
 18 16  1  0  0  0
 16 13  1  0  0  0
 13 14  2  0  0  0
 13 15  2  0  0  0
 13 11  1  0  0  0
 11  3  1  0  0  0
  3  4  2  0  0  0
  4  5  1  0  0  0
  5  6  2  0  0  0
  6  7  1  0  0  0
  7  8  2  0  0  0
  3  8  1  0  0  0
  6  9  1  0  0  0
  5  1  1  0  0  0
  1  2  2  0  0  0
  1 19  1  0  0  0
 19 20  1  0  0  0
 20 21  2  0  0  0
 21 22  1  0  0  0
 22 23  2  0  0  0
 23 24  1  0  0  0
 24 25  2  0  0  0
 20 25  1  0  0  0
 23 26  1  0  0  0
 26 27  2  0  0  0
 27 28  1  0  0  0
 22 28  1  0  0  0
 27 30  1  0  0  0
 30 31  2  0  0  0
 31 32  1  0  0  0
 32 33  2  0  0  0
 33 34  1  0  0  0
 34 35  2  0  0  0
 30 35  1  0  0  0
  4 10  1  0  0  0
 11 12  1  0  0  0
 28 29  1  0  0  0
M  END
> <minimizedAffinity>
-10.62166

$$$$
mol_58095372_20


 35 38  0  0  0  0  0  0  0  0999 V2000
    1.2795   -2.4907  -20.4282 C   0  0  0  0  0  0  0  0  0  0  0  0
    1.5700   -3.0221  -19.3567 O   0  0  0  0  0  0  0  0  0  0  0  0
   -2.4970   -2.3873  -20.7287 C   0  0  0  0  0  0  0  0  0  0  0  0
   -1.1735   -2.8426  -20.6408 C   0  0  0  0  0  0  0  0  0  0  0  0
   -0.0934   -1.9534  -20.6061 C   0  0  0  0  0  0  0  0  0  0  0  0
   -0.3592   -0.5902  -20.6942 C   0  0  0  0  0  0  0  0  0  0  0  0
   -1.6717   -0.1204  -20.7274 C   0  0  0  0  0  0  0  0  0  0  0  0
   -2.7410   -1.0188  -20.6956 C   0  0  0  0  0  0  0  0  0  0  0  0
    0.6277    0.3143  -20.7118 F   0  0  0  0  0  0  0  0  0  0  0  0
   -0.9699   -4.1707  -20.6369 F   0  0  0  0  0  0  0  0  0  0  0  0
   -3.5409   -3.3601  -20.7811 N   0  0  0  0  0  0  0  0  0  0  0  0
   -3.8018   -3.7009  -21.7111 H   0  0  0  0  0  0  0  0  0  0  0  0
   -4.8196   -3.3895  -19.6963 S   0  0  0  0  0  0  0  0  0  0  0  0
   -5.2523   -4.7566  -19.5224 O   0  0  0  0  0  0  0  0  0  0  0  0
   -5.7392   -2.3844  -20.1934 O   0  0  0  0  0  0  0  0  0  0  0  0
   -4.1196   -2.7572  -18.1579 C   0  0  0  0  0  0  0  0  0  0  0  0
   -5.4760   -3.0512  -16.0074 C   0  0  0  0  0  0  0  0  0  0  0  0
   -4.4038   -3.6141  -16.9255 C   0  0  0  0  0  0  0  0  0  0  0  0
    2.3183   -2.3714  -21.5284 C   0  0  0  0  0  0  0  0  0  0  0  0
    2.5647   -3.6256  -22.3292 C   0  0  0  0  0  0  0  0  0  0  0  0
    3.8815   -4.0464  -22.5700 C   0  0  0  0  0  0  0  0  0  0  0  0
    4.0112   -5.2245  -23.3016 C   0  0  0  0  0  0  0  0  0  0  0  0
    2.9080   -5.9215  -23.7735 C   0  0  0  0  0  0  0  0  0  0  0  0
    1.6353   -5.5515  -23.5246 N   0  0  0  0  0  0  0  0  0  0  0  0
    1.5151   -4.4344  -22.7784 C   0  0  0  0  0  0  0  0  0  0  0  0
    3.2813   -7.0081  -24.5070 N   0  0  0  0  0  0  0  0  0  0  0  0
    4.5978   -7.0392  -24.4478 C   0  0  0  0  0  0  0  0  0  0  0  0
    5.0794   -5.9699  -23.7255 N   0  0  0  0  0  0  0  0  0  0  0  0
    6.0556   -5.7749  -23.5569 H   0  0  0  0  0  0  0  0  0  0  0  0
    5.4535   -8.0457  -25.0588 C   0  0  0  0  0  0  0  0  0  0  0  0
    5.0407   -8.7360  -26.2048 C   0  0  0  0  0  0  0  0  0  0  0  0
    5.8977   -9.6513  -26.8203 C   0  0  0  0  0  0  0  0  0  0  0  0
    7.1649   -9.8887  -26.2883 C   0  0  0  0  0  0  0  0  0  0  0  0
    7.5791   -9.2109  -25.1427 C   0  0  0  0  0  0  0  0  0  0  0  0
    6.7283   -8.2869  -24.5335 C   0  0  0  0  0  0  0  0  0  0  0  0
 17 18  1  0  0  0
 18 16  1  0  0  0
 16 13  1  0  0  0
 13 14  2  0  0  0
 13 15  2  0  0  0
 13 11  1  0  0  0
 11  3  1  0  0  0
  3  4  2  0  0  0
  4  5  1  0  0  0
  5  6  2  0  0  0
  6  7  1  0  0  0
  7  8  2  0  0  0
  3  8  1  0  0  0
  6  9  1  0  0  0
  5  1  1  0  0  0
  1  2  2  0  0  0
  1 19  1  0  0  0
 19 20  1  0  0  0
 20 21  2  0  0  0
 21 22  1  0  0  0
 22 23  2  0  0  0
 23 24  1  0  0  0
 24 25  2  0  0  0
 20 25  1  0  0  0
 23 26  1  0  0  0
 26 27  2  0  0  0
 27 28  1  0  0  0
 22 28  1  0  0  0
 27 30  1  0  0  0
 30 31  2  0  0  0
 31 32  1  0  0  0
 32 33  2  0  0  0
 33 34  1  0  0  0
 34 35  2  0  0  0
 30 35  1  0  0  0
  4 10  1  0  0  0
 11 12  1  0  0  0
 28 29  1  0  0  0
M  END
> <minimizedAffinity>
-10.61099

$$$$
mol_58095345_21


 36 39  0  0  0  0  0  0  0  0999 V2000
    7.6164   -3.6827  -19.9840 C   0  0  0  0  0  0  0  0  0  0  0  0
    7.6830   -4.5788  -19.1433 O   0  0  0  0  0  0  0  0  0  0  0  0
    6.9958   -4.6655  -23.5923 C   0  0  0  0  0  0  0  0  0  0  0  0
    6.8078   -4.3637  -22.2348 C   0  0  0  0  0  0  0  0  0  0  0  0
    7.8822   -4.0303  -21.4016 C   0  0  0  0  0  0  0  0  0  0  0  0
    9.1635   -4.0268  -21.9411 C   0  0  0  0  0  0  0  0  0  0  0  0
    9.3609   -4.2648  -23.2993 C   0  0  0  0  0  0  0  0  0  0  0  0
    8.2710   -4.5346  -24.1314 C   0  0  0  0  0  0  0  0  0  0  0  0
   10.2371   -3.7676  -21.1853 F   0  0  0  0  0  0  0  0  0  0  0  0
    5.5647   -4.4682  -21.7350 F   0  0  0  0  0  0  0  0  0  0  0  0
    5.8506   -5.0238  -24.3637 N   0  0  0  0  0  0  0  0  0  0  0  0
    5.7390   -6.0107  -24.6136 H   0  0  0  0  0  0  0  0  0  0  0  0
    4.9550   -3.9755  -25.3076 S   0  0  0  0  0  0  0  0  0  0  0  0
    5.2188   -4.2450  -26.7042 O   0  0  0  0  0  0  0  0  0  0  0  0
    5.2199   -2.6674  -24.7481 O   0  0  0  0  0  0  0  0  0  0  0  0
    3.2420   -4.3740  -24.9137 C   0  0  0  0  0  0  0  0  0  0  0  0
    1.4165   -4.1211  -23.1387 C   0  0  0  0  0  0  0  0  0  0  0  0
    2.8914   -4.3448  -23.4274 C   0  0  0  0  0  0  0  0  0  0  0  0
    7.2433   -2.2668  -19.5829 C   0  0  0  0  0  0  0  0  0  0  0  0
    5.7762   -2.0010  -19.3458 C   0  0  0  0  0  0  0  0  0  0  0  0
    4.8464   -1.8618  -20.3823 C   0  0  0  0  0  0  0  0  0  0  0  0
    3.5245   -1.7056  -19.9820 C   0  0  0  0  0  0  0  0  0  0  0  0
    3.1550   -1.6105  -18.6487 C   0  0  0  0  0  0  0  0  0  0  0  0
    4.0449   -1.6525  -17.6357 N   0  0  0  0  0  0  0  0  0  0  0  0
    5.3241   -1.8477  -18.0278 C   0  0  0  0  0  0  0  0  0  0  0  0
    1.7984   -1.5012  -18.5183 N   0  0  0  0  0  0  0  0  0  0  0  0
    1.3239   -1.5228  -19.7480 C   0  0  0  0  0  0  0  0  0  0  0  0
    2.3444   -1.6194  -20.6639 N   0  0  0  0  0  0  0  0  0  0  0  0
    2.2247   -1.6557  -21.6649 H   0  0  0  0  0  0  0  0  0  0  0  0
   -0.0690   -1.4816  -20.1543 C   0  0  0  0  0  0  0  0  0  0  0  0
   -0.7209   -0.2509  -20.3115 C   0  0  0  0  0  0  0  0  0  0  0  0
   -2.0724   -0.2114  -20.6641 C   0  0  0  0  0  0  0  0  0  0  0  0
   -2.7775   -1.3988  -20.8659 C   0  0  0  0  0  0  0  0  0  0  0  0
   -2.1328   -2.6260  -20.7149 C   0  0  0  0  0  0  0  0  0  0  0  0
   -0.7870   -2.6609  -20.3597 C   0  0  0  0  0  0  0  0  0  0  0  0
   -0.2014   -3.8541  -20.1797 F   0  0  0  0  0  0  0  0  0  0  0  0
 17 18  1  0  0  0
 18 16  1  0  0  0
 16 13  1  0  0  0
 13 14  2  0  0  0
 13 15  2  0  0  0
 13 11  1  0  0  0
 11  3  1  0  0  0
  3  4  2  0  0  0
  4  5  1  0  0  0
  5  6  2  0  0  0
  6  7  1  0  0  0
  7  8  2  0  0  0
  3  8  1  0  0  0
  6  9  1  0  0  0
  5  1  1  0  0  0
  1  2  2  0  0  0
  1 19  1  0  0  0
 19 20  1  0  0  0
 20 21  2  0  0  0
 21 22  1  0  0  0
 22 23  2  0  0  0
 23 24  1  0  0  0
 24 25  2  0  0  0
 20 25  1  0  0  0
 23 26  1  0  0  0
 26 27  2  0  0  0
 27 28  1  0  0  0
 22 28  1  0  0  0
 27 30  1  0  0  0
 30 31  2  0  0  0
 31 32  1  0  0  0
 32 33  2  0  0  0
 33 34  1  0  0  0
 34 35  2  0  0  0
 30 35  1  0  0  0
 35 36  1  0  0  0
  4 10  1  0  0  0
 11 12  1  0  0  0
 28 29  1  0  0  0
M  END
> <minimizedAffinity>
-9.61367

$$$$
mol_58095345_21


 36 39  0  0  0  0  0  0  0  0999 V2000
    7.6687   -3.8630  -18.7500 C   0  0  0  0  0  0  0  0  0  0  0  0
    7.5083   -4.6535  -17.8206 O   0  0  0  0  0  0  0  0  0  0  0  0
    9.3939   -5.7582  -21.5433 C   0  0  0  0  0  0  0  0  0  0  0  0
    8.5083   -5.3999  -20.5154 C   0  0  0  0  0  0  0  0  0  0  0  0
    8.6595   -4.2065  -19.7994 C   0  0  0  0  0  0  0  0  0  0  0  0
    9.7326   -3.3788  -20.1093 C   0  0  0  0  0  0  0  0  0  0  0  0
   10.5852   -3.6898  -21.1660 C   0  0  0  0  0  0  0  0  0  0  0  0
   10.3839   -4.8541  -21.9124 C   0  0  0  0  0  0  0  0  0  0  0  0
    9.9621   -2.2505  -19.4270 F   0  0  0  0  0  0  0  0  0  0  0  0
    7.5397   -6.2725  -20.1889 F   0  0  0  0  0  0  0  0  0  0  0  0
    9.1851   -7.0058  -22.2026 N   0  0  0  0  0  0  0  0  0  0  0  0
    9.7180   -7.8132  -21.8662 H   0  0  0  0  0  0  0  0  0  0  0  0
    8.5624   -7.1929  -23.7419 S   0  0  0  0  0  0  0  0  0  0  0  0
    8.1256   -8.5607  -23.9184 O   0  0  0  0  0  0  0  0  0  0  0  0
    9.5693   -6.6241  -24.6120 O   0  0  0  0  0  0  0  0  0  0  0  0
    7.1450   -6.0804  -23.7874 C   0  0  0  0  0  0  0  0  0  0  0  0
    4.5894   -6.1281  -23.6727 C   0  0  0  0  0  0  0  0  0  0  0  0
    5.9017   -6.5788  -23.0535 C   0  0  0  0  0  0  0  0  0  0  0  0
    6.8523   -2.5857  -18.8336 C   0  0  0  0  0  0  0  0  0  0  0  0
    5.5090   -2.6913  -19.5144 C   0  0  0  0  0  0  0  0  0  0  0  0
    4.2939   -2.5308  -18.8390 C   0  0  0  0  0  0  0  0  0  0  0  0
    3.1565   -2.5760  -19.6367 C   0  0  0  0  0  0  0  0  0  0  0  0
    3.2090   -2.8435  -20.9964 C   0  0  0  0  0  0  0  0  0  0  0  0
    4.3621   -3.0899  -21.6519 N   0  0  0  0  0  0  0  0  0  0  0  0
    5.4691   -3.0024  -20.8807 C   0  0  0  0  0  0  0  0  0  0  0  0
    1.9637   -2.7930  -21.5586 N   0  0  0  0  0  0  0  0  0  0  0  0
    1.1424   -2.5031  -20.5691 C   0  0  0  0  0  0  0  0  0  0  0  0
    1.8276   -2.3900  -19.3827 N   0  0  0  0  0  0  0  0  0  0  0  0
    1.4112   -2.1709  -18.4903 H   0  0  0  0  0  0  0  0  0  0  0  0
   -0.2913   -2.2913  -20.6492 C   0  0  0  0  0  0  0  0  0  0  0  0
   -0.8042   -0.9971  -20.8112 C   0  0  0  0  0  0  0  0  0  0  0  0
   -2.1852   -0.7881  -20.8487 C   0  0  0  0  0  0  0  0  0  0  0  0
   -3.0598   -1.8692  -20.7297 C   0  0  0  0  0  0  0  0  0  0  0  0
   -2.5548   -3.1595  -20.5725 C   0  0  0  0  0  0  0  0  0  0  0  0
   -1.1780   -3.3629  -20.5317 C   0  0  0  0  0  0  0  0  0  0  0  0
   -0.7187   -4.6081  -20.3374 F   0  0  0  0  0  0  0  0  0  0  0  0
 17 18  1  0  0  0
 18 16  1  0  0  0
 16 13  1  0  0  0
 13 14  2  0  0  0
 13 15  2  0  0  0
 13 11  1  0  0  0
 11  3  1  0  0  0
  3  4  2  0  0  0
  4  5  1  0  0  0
  5  6  2  0  0  0
  6  7  1  0  0  0
  7  8  2  0  0  0
  3  8  1  0  0  0
  6  9  1  0  0  0
  5  1  1  0  0  0
  1  2  2  0  0  0
  1 19  1  0  0  0
 19 20  1  0  0  0
 20 21  2  0  0  0
 21 22  1  0  0  0
 22 23  2  0  0  0
 23 24  1  0  0  0
 24 25  2  0  0  0
 20 25  1  0  0  0
 23 26  1  0  0  0
 26 27  2  0  0  0
 27 28  1  0  0  0
 22 28  1  0  0  0
 27 30  1  0  0  0
 30 31  2  0  0  0
 31 32  1  0  0  0
 32 33  2  0  0  0
 33 34  1  0  0  0
 34 35  2  0  0  0
 30 35  1  0  0  0
 35 36  1  0  0  0
  4 10  1  0  0  0
 11 12  1  0  0  0
 28 29  1  0  0  0
M  END
> <minimizedAffinity>
-9.37330

$$$$
mol_58095345_21


 36 39  0  0  0  0  0  0  0  0999 V2000
    0.0738   -4.1844  -21.8302 C   0  0  0  0  0  0  0  0  0  0  0  0
   -0.3572   -5.1342  -21.1772 O   0  0  0  0  0  0  0  0  0  0  0  0
    1.9741   -1.4442  -20.0271 C   0  0  0  0  0  0  0  0  0  0  0  0
    1.6488   -2.6468  -20.6730 C   0  0  0  0  0  0  0  0  0  0  0  0
    0.3485   -2.9118  -21.1189 C   0  0  0  0  0  0  0  0  0  0  0  0
   -0.6388   -1.9610  -20.8866 C   0  0  0  0  0  0  0  0  0  0  0  0
   -0.3206   -0.7376  -20.3013 C   0  0  0  0  0  0  0  0  0  0  0  0
    0.9950   -0.4628  -19.9182 C   0  0  0  0  0  0  0  0  0  0  0  0
   -1.9111   -2.1765  -21.2415 F   0  0  0  0  0  0  0  0  0  0  0  0
    2.6133   -3.5746  -20.7950 F   0  0  0  0  0  0  0  0  0  0  0  0
    3.3164   -1.2669  -19.5783 N   0  0  0  0  0  0  0  0  0  0  0  0
    4.0018   -0.9277  -20.2596 H   0  0  0  0  0  0  0  0  0  0  0  0
    3.9926   -2.0028  -18.2392 S   0  0  0  0  0  0  0  0  0  0  0  0
    3.0799   -3.0038  -17.7313 O   0  0  0  0  0  0  0  0  0  0  0  0
    4.4212   -0.9047  -17.3996 O   0  0  0  0  0  0  0  0  0  0  0  0
    5.4858   -2.7907  -18.8700 C   0  0  0  0  0  0  0  0  0  0  0  0
    5.8629   -3.2152  -21.3649 C   0  0  0  0  0  0  0  0  0  0  0  0
    5.9967   -2.2461  -20.2024 C   0  0  0  0  0  0  0  0  0  0  0  0
    0.3442   -4.3229  -23.3177 C   0  0  0  0  0  0  0  0  0  0  0  0
    1.7049   -4.8490  -23.7062 C   0  0  0  0  0  0  0  0  0  0  0  0
    2.0282   -6.2105  -23.7044 C   0  0  0  0  0  0  0  0  0  0  0  0
    3.2993   -6.5233  -24.1718 C   0  0  0  0  0  0  0  0  0  0  0  0
    4.2192   -5.5526  -24.5388 C   0  0  0  0  0  0  0  0  0  0  0  0
    3.9603   -4.2307  -24.4640 N   0  0  0  0  0  0  0  0  0  0  0  0
    2.7083   -3.9324  -24.0498 C   0  0  0  0  0  0  0  0  0  0  0  0
    5.3763   -6.1168  -24.9991 N   0  0  0  0  0  0  0  0  0  0  0  0
    5.1888   -7.4192  -24.9189 C   0  0  0  0  0  0  0  0  0  0  0  0
    3.9494   -7.7032  -24.3965 N   0  0  0  0  0  0  0  0  0  0  0  0
    3.5820   -8.6303  -24.2442 H   0  0  0  0  0  0  0  0  0  0  0  0
    6.1054   -8.4669  -25.3303 C   0  0  0  0  0  0  0  0  0  0  0  0
    5.8323   -9.2338  -26.4711 C   0  0  0  0  0  0  0  0  0  0  0  0
    6.6938  -10.2684  -26.8451 C   0  0  0  0  0  0  0  0  0  0  0  0
    7.8331  -10.5389  -26.0858 C   0  0  0  0  0  0  0  0  0  0  0  0
    8.1118   -9.7763  -24.9520 C   0  0  0  0  0  0  0  0  0  0  0  0
    7.2486   -8.7488  -24.5807 C   0  0  0  0  0  0  0  0  0  0  0  0
    7.5169   -8.0579  -23.4628 F   0  0  0  0  0  0  0  0  0  0  0  0
 17 18  1  0  0  0
 18 16  1  0  0  0
 16 13  1  0  0  0
 13 14  2  0  0  0
 13 15  2  0  0  0
 13 11  1  0  0  0
 11  3  1  0  0  0
  3  4  2  0  0  0
  4  5  1  0  0  0
  5  6  2  0  0  0
  6  7  1  0  0  0
  7  8  2  0  0  0
  3  8  1  0  0  0
  6  9  1  0  0  0
  5  1  1  0  0  0
  1  2  2  0  0  0
  1 19  1  0  0  0
 19 20  1  0  0  0
 20 21  2  0  0  0
 21 22  1  0  0  0
 22 23  2  0  0  0
 23 24  1  0  0  0
 24 25  2  0  0  0
 20 25  1  0  0  0
 23 26  1  0  0  0
 26 27  2  0  0  0
 27 28  1  0  0  0
 22 28  1  0  0  0
 27 30  1  0  0  0
 30 31  2  0  0  0
 31 32  1  0  0  0
 32 33  2  0  0  0
 33 34  1  0  0  0
 34 35  2  0  0  0
 30 35  1  0  0  0
 35 36  1  0  0  0
  4 10  1  0  0  0
 11 12  1  0  0  0
 28 29  1  0  0  0
M  END
> <minimizedAffinity>
-9.31572

$$$$
mol_58252026_22


 31 33  0  0  0  0  0  0  0  0999 V2000
   -2.4554   -2.5451  -20.7406 C   0  0  0  0  0  0  0  0  0  0  0  0
   -2.6386   -1.1709  -20.6080 C   0  0  0  0  0  0  0  0  0  0  0  0
   -1.5161   -0.3367  -20.5825 C   0  0  0  0  0  0  0  0  0  0  0  0
   -0.2240   -0.8609  -20.5989 C   0  0  0  0  0  0  0  0  0  0  0  0
   -0.0419   -2.2342  -20.6901 C   0  0  0  0  0  0  0  0  0  0  0  0
   -1.1526   -3.0462  -20.8751 C   0  0  0  0  0  0  0  0  0  0  0  0
   -0.9695   -4.3251  -21.2254 F   0  0  0  0  0  0  0  0  0  0  0  0
    0.8232   -0.0358  -20.4683 F   0  0  0  0  0  0  0  0  0  0  0  0
   -1.6898    0.9889  -20.4989 F   0  0  0  0  0  0  0  0  0  0  0  0
   -3.5444   -3.4791  -20.7849 N   0  0  0  0  0  0  0  0  0  0  0  0
   -3.9557   -3.5755  -21.7182 H   0  0  0  0  0  0  0  0  0  0  0  0
   -4.8272   -3.3518  -19.6925 S   0  0  0  0  0  0  0  0  0  0  0  0
   -5.3128   -4.6982  -19.4952 O   0  0  0  0  0  0  0  0  0  0  0  0
   -5.7122   -2.3301  -20.2175 O   0  0  0  0  0  0  0  0  0  0  0  0
   -4.1481   -2.7482  -18.1493 C   0  0  0  0  0  0  0  0  0  0  0  0
   -5.4659   -3.1093  -15.9915 C   0  0  0  0  0  0  0  0  0  0  0  0
   -5.1165   -2.1734  -17.1241 C   0  0  0  0  0  0  0  0  0  0  0  0
    1.2951   -2.8257  -20.4866 C   0  0  0  0  0  0  0  0  0  0  0  0
    1.8149   -3.4000  -21.4412 O   0  0  0  0  0  0  0  0  0  0  0  0
    1.9607   -2.7989  -19.1117 C   0  0  0  0  0  0  0  0  0  0  0  0
    3.4192   -2.3996  -18.9455 C   0  0  0  0  0  0  0  0  0  0  0  0
    4.3678   -2.9621  -19.8258 C   0  0  0  0  0  0  0  0  0  0  0  0
    5.7434   -2.7601  -19.5852 C   0  0  0  0  0  0  0  0  0  0  0  0
    6.0802   -2.0288  -18.4539 C   0  0  0  0  0  0  0  0  0  0  0  0
    7.4447   -2.0176  -18.3328 N   0  0  0  0  0  0  0  0  0  0  0  0
    8.0085   -2.6606  -19.4055 C   0  0  0  0  0  0  0  0  0  0  0  0
    6.9737   -3.1081  -20.1939 C   0  0  0  0  0  0  0  0  0  0  0  0
    7.1486   -4.0201  -21.8229 Br  0  0  0  0  0  0  0  0  0  0  0  0
    5.2392   -1.4278  -17.5990 N   0  0  0  0  0  0  0  0  0  0  0  0
    3.9323   -1.6173  -17.9142 C   0  0  0  0  0  0  0  0  0  0  0  0
    7.9381   -1.5811  -17.5671 H   0  0  0  0  0  0  0  0  0  0  0  0
 16 17  1  0  0  0
 17 15  1  0  0  0
 15 12  1  0  0  0
 12 13  2  0  0  0
 12 14  2  0  0  0
 12 10  1  0  0  0
 10  1  1  0  0  0
  1  2  2  0  0  0
  2  3  1  0  0  0
  3  4  2  0  0  0
  4  5  1  0  0  0
  5  6  2  0  0  0
  1  6  1  0  0  0
  6  7  1  0  0  0
  5 18  1  0  0  0
 18 19  2  0  0  0
 18 20  1  0  0  0
 20 21  1  0  0  0
 21 22  2  0  0  0
 22 23  1  0  0  0
 23 24  2  0  0  0
 24 25  1  0  0  0
 25 26  1  0  0  0
 26 27  2  0  0  0
 23 27  1  0  0  0
 27 28  1  0  0  0
 24 29  1  0  0  0
 29 30  2  0  0  0
 21 30  1  0  0  0
  4  8  1  0  0  0
  3  9  1  0  0  0
 10 11  1  0  0  0
 25 31  1  0  0  0
M  END
> <minimizedAffinity>
-10.71290

$$$$
mol_58252026_22


 31 33  0  0  0  0  0  0  0  0999 V2000
   -2.2710   -2.5501  -20.7205 C   0  0  0  0  0  0  0  0  0  0  0  0
   -2.4930   -1.1841  -20.5644 C   0  0  0  0  0  0  0  0  0  0  0  0
   -1.3975   -0.3143  -20.5700 C   0  0  0  0  0  0  0  0  0  0  0  0
   -0.0908   -0.7962  -20.6404 C   0  0  0  0  0  0  0  0  0  0  0  0
    0.1315   -2.1618  -20.7550 C   0  0  0  0  0  0  0  0  0  0  0  0
   -0.9587   -3.0072  -20.9089 C   0  0  0  0  0  0  0  0  0  0  0  0
   -0.7480   -4.2756  -21.2813 F   0  0  0  0  0  0  0  0  0  0  0  0
    0.9336    0.0610  -20.5383 F   0  0  0  0  0  0  0  0  0  0  0  0
   -1.6103    1.0039  -20.4639 F   0  0  0  0  0  0  0  0  0  0  0  0
   -3.3304   -3.5183  -20.7361 N   0  0  0  0  0  0  0  0  0  0  0  0
   -3.7013   -3.6957  -21.6744 H   0  0  0  0  0  0  0  0  0  0  0  0
   -4.6589   -3.3514  -19.7052 S   0  0  0  0  0  0  0  0  0  0  0  0
   -4.1643   -2.6697  -18.5312 O   0  0  0  0  0  0  0  0  0  0  0  0
   -5.2514   -4.6694  -19.5843 O   0  0  0  0  0  0  0  0  0  0  0  0
   -5.8411   -2.2932  -20.5354 C   0  0  0  0  0  0  0  0  0  0  0  0
   -7.2461   -1.8611  -22.6241 C   0  0  0  0  0  0  0  0  0  0  0  0
   -5.9659   -2.4179  -22.0481 C   0  0  0  0  0  0  0  0  0  0  0  0
    1.4934   -2.7118  -20.6080 C   0  0  0  0  0  0  0  0  0  0  0  0
    2.0314   -3.1757  -21.6114 O   0  0  0  0  0  0  0  0  0  0  0  0
    2.1653   -2.7800  -19.2377 C   0  0  0  0  0  0  0  0  0  0  0  0
    3.6312   -2.4164  -19.0552 C   0  0  0  0  0  0  0  0  0  0  0  0
    4.5752   -3.0002  -19.9265 C   0  0  0  0  0  0  0  0  0  0  0  0
    5.9526   -2.8319  -19.6709 C   0  0  0  0  0  0  0  0  0  0  0  0
    6.2950   -2.1108  -18.5347 C   0  0  0  0  0  0  0  0  0  0  0  0
    7.6580   -2.1327  -18.3992 N   0  0  0  0  0  0  0  0  0  0  0  0
    8.2174   -2.7874  -19.4670 C   0  0  0  0  0  0  0  0  0  0  0  0
    7.1806   -3.2085  -20.2672 C   0  0  0  0  0  0  0  0  0  0  0  0
    7.3508   -4.1218  -21.8960 Br  0  0  0  0  0  0  0  0  0  0  0  0
    5.4596   -1.4910  -17.6876 N   0  0  0  0  0  0  0  0  0  0  0  0
    4.1519   -1.6484  -18.0171 C   0  0  0  0  0  0  0  0  0  0  0  0
    8.1536   -1.7095  -17.6274 H   0  0  0  0  0  0  0  0  0  0  0  0
 16 17  1  0  0  0
 17 15  1  0  0  0
 15 12  1  0  0  0
 12 13  2  0  0  0
 12 14  2  0  0  0
 12 10  1  0  0  0
 10  1  1  0  0  0
  1  2  2  0  0  0
  2  3  1  0  0  0
  3  4  2  0  0  0
  4  5  1  0  0  0
  5  6  2  0  0  0
  1  6  1  0  0  0
  6  7  1  0  0  0
  5 18  1  0  0  0
 18 19  2  0  0  0
 18 20  1  0  0  0
 20 21  1  0  0  0
 21 22  2  0  0  0
 22 23  1  0  0  0
 23 24  2  0  0  0
 24 25  1  0  0  0
 25 26  1  0  0  0
 26 27  2  0  0  0
 23 27  1  0  0  0
 27 28  1  0  0  0
 24 29  1  0  0  0
 29 30  2  0  0  0
 21 30  1  0  0  0
  4  8  1  0  0  0
  3  9  1  0  0  0
 10 11  1  0  0  0
 25 31  1  0  0  0
M  END
> <minimizedAffinity>
-10.12065

$$$$
mol_58252026_22


 31 33  0  0  0  0  0  0  0  0999 V2000
   -1.5271   -2.3781  -20.5859 C   0  0  0  0  0  0  0  0  0  0  0  0
   -1.7934   -1.0111  -20.5805 C   0  0  0  0  0  0  0  0  0  0  0  0
   -0.7220   -0.1120  -20.5613 C   0  0  0  0  0  0  0  0  0  0  0  0
    0.5955   -0.5576  -20.4593 C   0  0  0  0  0  0  0  0  0  0  0  0
    0.8579   -1.9204  -20.4235 C   0  0  0  0  0  0  0  0  0  0  0  0
   -0.1929   -2.8097  -20.6026 C   0  0  0  0  0  0  0  0  0  0  0  0
    0.0814   -4.0995  -20.8326 F   0  0  0  0  0  0  0  0  0  0  0  0
    1.5857    0.3366  -20.3391 F   0  0  0  0  0  0  0  0  0  0  0  0
   -0.9731    1.2032  -20.6001 F   0  0  0  0  0  0  0  0  0  0  0  0
   -2.5584   -3.3761  -20.6134 N   0  0  0  0  0  0  0  0  0  0  0  0
   -2.4473   -4.0504  -21.3767 H   0  0  0  0  0  0  0  0  0  0  0  0
   -4.1869   -2.9261  -20.5874 S   0  0  0  0  0  0  0  0  0  0  0  0
   -4.9372   -4.1497  -20.7531 O   0  0  0  0  0  0  0  0  0  0  0  0
   -4.3299   -1.8505  -21.5494 O   0  0  0  0  0  0  0  0  0  0  0  0
   -4.5230   -2.2553  -18.9615 C   0  0  0  0  0  0  0  0  0  0  0  0
   -4.9938   -2.6446  -16.4815 C   0  0  0  0  0  0  0  0  0  0  0  0
   -4.4428   -3.2029  -17.7720 C   0  0  0  0  0  0  0  0  0  0  0  0
    2.2101   -2.4123  -20.0945 C   0  0  0  0  0  0  0  0  0  0  0  0
    2.3356   -3.0989  -19.0824 O   0  0  0  0  0  0  0  0  0  0  0  0
    3.4173   -2.0027  -20.9364 C   0  0  0  0  0  0  0  0  0  0  0  0
    4.2118   -3.0268  -21.7327 C   0  0  0  0  0  0  0  0  0  0  0  0
    3.5023   -3.9207  -22.5627 C   0  0  0  0  0  0  0  0  0  0  0  0
    4.1855   -4.9963  -23.1685 C   0  0  0  0  0  0  0  0  0  0  0  0
    5.5370   -5.1237  -22.8761 C   0  0  0  0  0  0  0  0  0  0  0  0
    6.0053   -6.2660  -23.4697 N   0  0  0  0  0  0  0  0  0  0  0  0
    5.0052   -6.8454  -24.2086 C   0  0  0  0  0  0  0  0  0  0  0  0
    3.8836   -6.0654  -24.0467 C   0  0  0  0  0  0  0  0  0  0  0  0
    2.2198   -6.3505  -24.8630 Br  0  0  0  0  0  0  0  0  0  0  0  0
    6.2865   -4.2928  -22.1363 N   0  0  0  0  0  0  0  0  0  0  0  0
    5.5817   -3.2514  -21.6243 C   0  0  0  0  0  0  0  0  0  0  0  0
    6.9533   -6.6016  -23.3747 H   0  0  0  0  0  0  0  0  0  0  0  0
 16 17  1  0  0  0
 17 15  1  0  0  0
 15 12  1  0  0  0
 12 13  2  0  0  0
 12 14  2  0  0  0
 12 10  1  0  0  0
 10  1  1  0  0  0
  1  2  2  0  0  0
  2  3  1  0  0  0
  3  4  2  0  0  0
  4  5  1  0  0  0
  5  6  2  0  0  0
  1  6  1  0  0  0
  6  7  1  0  0  0
  5 18  1  0  0  0
 18 19  2  0  0  0
 18 20  1  0  0  0
 20 21  1  0  0  0
 21 22  2  0  0  0
 22 23  1  0  0  0
 23 24  2  0  0  0
 24 25  1  0  0  0
 25 26  1  0  0  0
 26 27  2  0  0  0
 23 27  1  0  0  0
 27 28  1  0  0  0
 24 29  1  0  0  0
 29 30  2  0  0  0
 21 30  1  0  0  0
  4  8  1  0  0  0
  3  9  1  0  0  0
 10 11  1  0  0  0
 25 31  1  0  0  0
M  END
> <minimizedAffinity>
-9.37935

$$$$
mol_58252024_23


 30 32  0  0  0  0  0  0  0  0999 V2000
   -2.4914   -2.3497  -20.6909 C   0  0  0  0  0  0  0  0  0  0  0  0
   -1.1578   -2.7662  -20.5695 C   0  0  0  0  0  0  0  0  0  0  0  0
   -0.1002   -1.8490  -20.5356 C   0  0  0  0  0  0  0  0  0  0  0  0
   -0.4021   -0.4952  -20.6496 C   0  0  0  0  0  0  0  0  0  0  0  0
   -1.7258   -0.0621  -20.7098 C   0  0  0  0  0  0  0  0  0  0  0  0
   -2.7708   -0.9881  -20.6821 C   0  0  0  0  0  0  0  0  0  0  0  0
    0.5576    0.4369  -20.6797 F   0  0  0  0  0  0  0  0  0  0  0  0
   -0.9215   -4.0888  -20.5424 F   0  0  0  0  0  0  0  0  0  0  0  0
   -3.5027   -3.3560  -20.7405 N   0  0  0  0  0  0  0  0  0  0  0  0
   -3.6717   -3.7918  -21.6522 H   0  0  0  0  0  0  0  0  0  0  0  0
   -4.8462   -3.3798  -19.7411 S   0  0  0  0  0  0  0  0  0  0  0  0
   -5.2515   -4.7520  -19.5278 O   0  0  0  0  0  0  0  0  0  0  0  0
   -5.7598   -2.4277  -20.3370 O   0  0  0  0  0  0  0  0  0  0  0  0
   -4.2639   -2.6577  -18.1951 C   0  0  0  0  0  0  0  0  0  0  0  0
   -5.4982   -3.0113  -15.9826 C   0  0  0  0  0  0  0  0  0  0  0  0
   -4.4586   -3.5344  -16.9599 C   0  0  0  0  0  0  0  0  0  0  0  0
    1.2866   -2.3570  -20.3675 C   0  0  0  0  0  0  0  0  0  0  0  0
    1.9769   -2.5224  -21.3733 O   0  0  0  0  0  0  0  0  0  0  0  0
    1.8430   -2.6934  -18.9988 C   0  0  0  0  0  0  0  0  0  0  0  0
    3.3099   -2.4309  -18.7635 C   0  0  0  0  0  0  0  0  0  0  0  0
    4.2393   -3.0221  -19.6370 C   0  0  0  0  0  0  0  0  0  0  0  0
    5.6088   -2.7870  -19.4246 C   0  0  0  0  0  0  0  0  0  0  0  0
    5.9508   -1.9896  -18.3387 C   0  0  0  0  0  0  0  0  0  0  0  0
    7.3166   -1.9075  -18.2797 N   0  0  0  0  0  0  0  0  0  0  0  0
    7.8700   -2.6043  -19.3242 C   0  0  0  0  0  0  0  0  0  0  0  0
    6.8302   -3.1455  -20.0424 C   0  0  0  0  0  0  0  0  0  0  0  0
    6.9832   -4.1831  -21.5971 Br  0  0  0  0  0  0  0  0  0  0  0  0
    5.1185   -1.3808  -17.4772 N   0  0  0  0  0  0  0  0  0  0  0  0
    3.8122   -1.6114  -17.7519 C   0  0  0  0  0  0  0  0  0  0  0  0
    7.8144   -1.3919  -17.5685 H   0  0  0  0  0  0  0  0  0  0  0  0
 15 16  1  0  0  0
 16 14  1  0  0  0
 14 11  1  0  0  0
 11 12  2  0  0  0
 11 13  2  0  0  0
 11  9  1  0  0  0
  9  1  1  0  0  0
  1  2  2  0  0  0
  2  3  1  0  0  0
  3  4  2  0  0  0
  4  5  1  0  0  0
  5  6  2  0  0  0
  1  6  1  0  0  0
  4  7  1  0  0  0
  3 17  1  0  0  0
 17 18  2  0  0  0
 17 19  1  0  0  0
 19 20  1  0  0  0
 20 21  2  0  0  0
 21 22  1  0  0  0
 22 23  2  0  0  0
 23 24  1  0  0  0
 24 25  1  0  0  0
 25 26  2  0  0  0
 22 26  1  0  0  0
 26 27  1  0  0  0
 23 28  1  0  0  0
 28 29  2  0  0  0
 20 29  1  0  0  0
  2  8  1  0  0  0
  9 10  1  0  0  0
 24 30  1  0  0  0
M  END
> <minimizedAffinity>
-10.76918

$$$$
mol_58252024_23


 30 32  0  0  0  0  0  0  0  0999 V2000
   -2.3635   -2.4309  -20.6837 C   0  0  0  0  0  0  0  0  0  0  0  0
   -1.0593   -2.8925  -20.4541 C   0  0  0  0  0  0  0  0  0  0  0  0
    0.0299   -2.0154  -20.3802 C   0  0  0  0  0  0  0  0  0  0  0  0
   -0.2083   -0.6567  -20.5650 C   0  0  0  0  0  0  0  0  0  0  0  0
   -1.5061   -0.1765  -20.7336 C   0  0  0  0  0  0  0  0  0  0  0  0
   -2.5874   -1.0604  -20.7448 C   0  0  0  0  0  0  0  0  0  0  0  0
    0.7882    0.2364  -20.5624 F   0  0  0  0  0  0  0  0  0  0  0  0
   -0.8793   -4.2210  -20.3616 F   0  0  0  0  0  0  0  0  0  0  0  0
   -3.4090   -3.3993  -20.7667 N   0  0  0  0  0  0  0  0  0  0  0  0
   -3.5080   -3.8919  -21.6596 H   0  0  0  0  0  0  0  0  0  0  0  0
   -4.8428   -3.3015  -19.9071 S   0  0  0  0  0  0  0  0  0  0  0  0
   -5.3132   -4.6390  -19.6201 O   0  0  0  0  0  0  0  0  0  0  0  0
   -5.6617   -2.3820  -20.6689 O   0  0  0  0  0  0  0  0  0  0  0  0
   -4.3885   -2.4622  -18.3775 C   0  0  0  0  0  0  0  0  0  0  0  0
   -5.4085   -3.0740  -16.1127 C   0  0  0  0  0  0  0  0  0  0  0  0
   -4.3282   -3.3590  -17.1429 C   0  0  0  0  0  0  0  0  0  0  0  0
    1.3801   -2.5686  -20.0969 C   0  0  0  0  0  0  0  0  0  0  0  0
    1.5707   -3.1272  -19.0165 O   0  0  0  0  0  0  0  0  0  0  0  0
    2.5133   -2.4328  -21.0937 C   0  0  0  0  0  0  0  0  0  0  0  0
    2.5355   -3.3975  -22.2534 C   0  0  0  0  0  0  0  0  0  0  0  0
    3.7242   -3.5191  -22.9940 C   0  0  0  0  0  0  0  0  0  0  0  0
    3.7546   -4.4123  -24.0790 C   0  0  0  0  0  0  0  0  0  0  0  0
    2.5836   -5.1079  -24.3562 C   0  0  0  0  0  0  0  0  0  0  0  0
    2.8009   -5.8929  -25.4572 N   0  0  0  0  0  0  0  0  0  0  0  0
    4.0982   -5.7507  -25.8810 C   0  0  0  0  0  0  0  0  0  0  0  0
    4.7002   -4.8474  -25.0373 C   0  0  0  0  0  0  0  0  0  0  0  0
    6.4857   -4.2796  -25.1187 Br  0  0  0  0  0  0  0  0  0  0  0  0
    1.4219   -5.0542  -23.6829 N   0  0  0  0  0  0  0  0  0  0  0  0
    1.4618   -4.2070  -22.6267 C   0  0  0  0  0  0  0  0  0  0  0  0
    2.0954   -6.4880  -25.8662 H   0  0  0  0  0  0  0  0  0  0  0  0
 15 16  1  0  0  0
 16 14  1  0  0  0
 14 11  1  0  0  0
 11 12  2  0  0  0
 11 13  2  0  0  0
 11  9  1  0  0  0
  9  1  1  0  0  0
  1  2  2  0  0  0
  2  3  1  0  0  0
  3  4  2  0  0  0
  4  5  1  0  0  0
  5  6  2  0  0  0
  1  6  1  0  0  0
  4  7  1  0  0  0
  3 17  1  0  0  0
 17 18  2  0  0  0
 17 19  1  0  0  0
 19 20  1  0  0  0
 20 21  2  0  0  0
 21 22  1  0  0  0
 22 23  2  0  0  0
 23 24  1  0  0  0
 24 25  1  0  0  0
 25 26  2  0  0  0
 22 26  1  0  0  0
 26 27  1  0  0  0
 23 28  1  0  0  0
 28 29  2  0  0  0
 20 29  1  0  0  0
  2  8  1  0  0  0
  9 10  1  0  0  0
 24 30  1  0  0  0
M  END
> <minimizedAffinity>
-9.91015

$$$$
mol_58252024_23


 30 32  0  0  0  0  0  0  0  0999 V2000
    2.4375   -2.6808  -19.4890 C   0  0  0  0  0  0  0  0  0  0  0  0
    3.5624   -2.4734  -20.3004 C   0  0  0  0  0  0  0  0  0  0  0  0
    4.8371   -2.2757  -19.7552 C   0  0  0  0  0  0  0  0  0  0  0  0
    4.9635   -2.2661  -18.3693 C   0  0  0  0  0  0  0  0  0  0  0  0
    3.8664   -2.5308  -17.5510 C   0  0  0  0  0  0  0  0  0  0  0  0
    2.6140   -2.7853  -18.1142 C   0  0  0  0  0  0  0  0  0  0  0  0
    6.1385   -2.0296  -17.7742 F   0  0  0  0  0  0  0  0  0  0  0  0
    3.3664   -2.4149  -21.6285 F   0  0  0  0  0  0  0  0  0  0  0  0
    1.1739   -2.8504  -20.1312 N   0  0  0  0  0  0  0  0  0  0  0  0
    1.0929   -3.6361  -20.7837 H   0  0  0  0  0  0  0  0  0  0  0  0
    0.1307   -1.5897  -20.4871 S   0  0  0  0  0  0  0  0  0  0  0  0
    0.5123   -1.0047  -21.7540 O   0  0  0  0  0  0  0  0  0  0  0  0
    0.1079   -0.7855  -19.2834 O   0  0  0  0  0  0  0  0  0  0  0  0
   -1.4856   -2.3758  -20.6287 C   0  0  0  0  0  0  0  0  0  0  0  0
   -4.0242   -2.0753  -20.7247 C   0  0  0  0  0  0  0  0  0  0  0  0
   -2.6585   -1.4129  -20.8000 C   0  0  0  0  0  0  0  0  0  0  0  0
    5.9921   -2.0991  -20.6740 C   0  0  0  0  0  0  0  0  0  0  0  0
    6.0292   -1.0938  -21.3836 O   0  0  0  0  0  0  0  0  0  0  0  0
    7.0928   -3.1364  -20.7659 C   0  0  0  0  0  0  0  0  0  0  0  0
    6.7840   -4.4100  -21.5134 C   0  0  0  0  0  0  0  0  0  0  0  0
    5.8105   -4.3665  -22.5266 C   0  0  0  0  0  0  0  0  0  0  0  0
    5.5124   -5.5482  -23.2270 C   0  0  0  0  0  0  0  0  0  0  0  0
    6.1994   -6.6958  -22.8487 C   0  0  0  0  0  0  0  0  0  0  0  0
    5.7500   -7.7377  -23.6156 N   0  0  0  0  0  0  0  0  0  0  0  0
    4.8115   -7.2864  -24.5091 C   0  0  0  0  0  0  0  0  0  0  0  0
    4.6599   -5.9383  -24.2867 C   0  0  0  0  0  0  0  0  0  0  0  0
    3.5225   -4.7836  -25.2304 Br  0  0  0  0  0  0  0  0  0  0  0  0
    7.1506   -6.8058  -21.9059 N   0  0  0  0  0  0  0  0  0  0  0  0
    7.4233   -5.6303  -21.2905 C   0  0  0  0  0  0  0  0  0  0  0  0
    6.0877   -8.6846  -23.5235 H   0  0  0  0  0  0  0  0  0  0  0  0
 15 16  1  0  0  0
 16 14  1  0  0  0
 14 11  1  0  0  0
 11 12  2  0  0  0
 11 13  2  0  0  0
 11  9  1  0  0  0
  9  1  1  0  0  0
  1  2  2  0  0  0
  2  3  1  0  0  0
  3  4  2  0  0  0
  4  5  1  0  0  0
  5  6  2  0  0  0
  1  6  1  0  0  0
  4  7  1  0  0  0
  3 17  1  0  0  0
 17 18  2  0  0  0
 17 19  1  0  0  0
 19 20  1  0  0  0
 20 21  2  0  0  0
 21 22  1  0  0  0
 22 23  2  0  0  0
 23 24  1  0  0  0
 24 25  1  0  0  0
 25 26  2  0  0  0
 22 26  1  0  0  0
 26 27  1  0  0  0
 23 28  1  0  0  0
 28 29  2  0  0  0
 20 29  1  0  0  0
  2  8  1  0  0  0
  9 10  1  0  0  0
 24 30  1  0  0  0
M  END
> <minimizedAffinity>
-9.64107

$$$$
mol_58252002_24


 30 32  0  0  0  0  0  0  0  0999 V2000
    6.3558   -4.5006  -23.7011 C   0  0  0  0  0  0  0  0  0  0  0  0
    7.2049   -5.5671  -23.4214 C   0  0  0  0  0  0  0  0  0  0  0  0
    7.5943   -5.7913  -22.1114 C   0  0  0  0  0  0  0  0  0  0  0  0
    7.2100   -4.9234  -21.0894 C   0  0  0  0  0  0  0  0  0  0  0  0
    6.3905   -3.8107  -21.3480 C   0  0  0  0  0  0  0  0  0  0  0  0
    5.8884   -3.6750  -22.6531 C   0  0  0  0  0  0  0  0  0  0  0  0
    5.0146   -2.7059  -22.9537 F   0  0  0  0  0  0  0  0  0  0  0  0
    7.6796   -5.1830  -19.8609 F   0  0  0  0  0  0  0  0  0  0  0  0
    8.3912   -6.8340  -21.8423 F   0  0  0  0  0  0  0  0  0  0  0  0
    6.0122   -4.3270  -25.0812 N   0  0  0  0  0  0  0  0  0  0  0  0
    6.6846   -4.8102  -25.6874 H   0  0  0  0  0  0  0  0  0  0  0  0
    4.5036   -4.7488  -25.7099 S   0  0  0  0  0  0  0  0  0  0  0  0
    4.7612   -5.7554  -26.7211 O   0  0  0  0  0  0  0  0  0  0  0  0
    3.9090   -3.4876  -26.0931 O   0  0  0  0  0  0  0  0  0  0  0  0
    3.4620   -5.4416  -24.4062 C   0  0  0  0  0  0  0  0  0  0  0  0
    1.2887   -5.2732  -23.1931 C   0  0  0  0  0  0  0  0  0  0  0  0
    2.3908   -4.5080  -23.8669 C   0  0  0  0  0  0  0  0  0  0  0  0
    6.2423   -2.7743  -20.2624 C   0  0  0  0  0  0  0  0  0  0  0  0
    6.6924   -1.6438  -20.4655 O   0  0  0  0  0  0  0  0  0  0  0  0
    5.4818   -3.0211  -18.9602 C   0  0  0  0  0  0  0  0  0  0  0  0
    4.0231   -2.6213  -18.9937 C   0  0  0  0  0  0  0  0  0  0  0  0
    3.3866   -2.0102  -17.9071 C   0  0  0  0  0  0  0  0  0  0  0  0
    2.1483   -1.4473  -17.9182 N   0  0  0  0  0  0  0  0  0  0  0  0
    1.5518   -1.5154  -19.1236 C   0  0  0  0  0  0  0  0  0  0  0  0
    2.0197   -2.1705  -20.2561 C   0  0  0  0  0  0  0  0  0  0  0  0
    3.2737   -2.8009  -20.1688 C   0  0  0  0  0  0  0  0  0  0  0  0
    1.0827   -1.9226  -21.2961 C   0  0  0  0  0  0  0  0  0  0  0  0
    0.1333   -1.0521  -20.8003 C   0  0  0  0  0  0  0  0  0  0  0  0
    0.4050   -0.8495  -19.4692 N   0  0  0  0  0  0  0  0  0  0  0  0
   -0.0946   -0.2331  -18.8449 H   0  0  0  0  0  0  0  0  0  0  0  0
 16 17  1  0  0  0
 17 15  1  0  0  0
 15 12  1  0  0  0
 12 13  2  0  0  0
 12 14  2  0  0  0
 12 10  1  0  0  0
 10  1  1  0  0  0
  1  2  2  0  0  0
  2  3  1  0  0  0
  3  4  2  0  0  0
  4  5  1  0  0  0
  5  6  2  0  0  0
  1  6  1  0  0  0
  6  7  1  0  0  0
  5 18  1  0  0  0
 18 19  2  0  0  0
 18 20  1  0  0  0
 20 21  1  0  0  0
 21 22  2  0  0  0
 22 23  1  0  0  0
 23 24  2  0  0  0
 24 25  1  0  0  0
 25 26  2  0  0  0
 21 26  1  0  0  0
 25 27  1  0  0  0
 27 28  2  0  0  0
 28 29  1  0  0  0
 24 29  1  0  0  0
  4  8  1  0  0  0
  3  9  1  0  0  0
 10 11  1  0  0  0
 29 30  1  0  0  0
M  END
> <minimizedAffinity>
-8.30018

$$$$
mol_58252002_24


 30 32  0  0  0  0  0  0  0  0999 V2000
    2.2852   -2.5515  -19.5641 C   0  0  0  0  0  0  0  0  0  0  0  0
    2.2791   -2.2693  -18.2014 C   0  0  0  0  0  0  0  0  0  0  0  0
    3.4462   -1.8278  -17.6005 C   0  0  0  0  0  0  0  0  0  0  0  0
    4.6357   -1.7363  -18.3230 C   0  0  0  0  0  0  0  0  0  0  0  0
    4.6843   -2.0588  -19.6905 C   0  0  0  0  0  0  0  0  0  0  0  0
    3.4665   -2.3690  -20.3188 C   0  0  0  0  0  0  0  0  0  0  0  0
    3.4114   -2.5801  -21.6400 F   0  0  0  0  0  0  0  0  0  0  0  0
    5.7302   -1.3556  -17.6490 F   0  0  0  0  0  0  0  0  0  0  0  0
    3.4301   -1.5329  -16.2938 F   0  0  0  0  0  0  0  0  0  0  0  0
    1.0436   -3.0174  -20.1064 N   0  0  0  0  0  0  0  0  0  0  0  0
    0.5705   -3.6446  -19.4463 H   0  0  0  0  0  0  0  0  0  0  0  0
   -0.1727   -1.9748  -20.6381 S   0  0  0  0  0  0  0  0  0  0  0  0
    0.2122   -1.5629  -21.9739 O   0  0  0  0  0  0  0  0  0  0  0  0
   -0.2812   -0.9852  -19.5893 O   0  0  0  0  0  0  0  0  0  0  0  0
   -1.7536   -2.8476  -20.6971 C   0  0  0  0  0  0  0  0  0  0  0  0
   -3.7562   -2.5937  -19.2314 C   0  0  0  0  0  0  0  0  0  0  0  0
   -2.9736   -2.0030  -20.3684 C   0  0  0  0  0  0  0  0  0  0  0  0
    6.0401   -2.2008  -20.3357 C   0  0  0  0  0  0  0  0  0  0  0  0
    6.3871   -1.3548  -21.1637 O   0  0  0  0  0  0  0  0  0  0  0  0
    7.0468   -3.2841  -19.9510 C   0  0  0  0  0  0  0  0  0  0  0  0
    7.1737   -4.4136  -20.9496 C   0  0  0  0  0  0  0  0  0  0  0  0
    8.0724   -5.4725  -20.7757 C   0  0  0  0  0  0  0  0  0  0  0  0
    8.1150   -6.6150  -21.5128 N   0  0  0  0  0  0  0  0  0  0  0  0
    7.1672   -6.6587  -22.4682 C   0  0  0  0  0  0  0  0  0  0  0  0
    6.2775   -5.6494  -22.8151 C   0  0  0  0  0  0  0  0  0  0  0  0
    6.3252   -4.4584  -22.0689 C   0  0  0  0  0  0  0  0  0  0  0  0
    5.4362   -6.1701  -23.8359 C   0  0  0  0  0  0  0  0  0  0  0  0
    5.7688   -7.4982  -24.0103 C   0  0  0  0  0  0  0  0  0  0  0  0
    6.8495   -7.7685  -23.2069 N   0  0  0  0  0  0  0  0  0  0  0  0
    7.2977   -8.6657  -23.0908 H   0  0  0  0  0  0  0  0  0  0  0  0
 16 17  1  0  0  0
 17 15  1  0  0  0
 15 12  1  0  0  0
 12 13  2  0  0  0
 12 14  2  0  0  0
 12 10  1  0  0  0
 10  1  1  0  0  0
  1  2  2  0  0  0
  2  3  1  0  0  0
  3  4  2  0  0  0
  4  5  1  0  0  0
  5  6  2  0  0  0
  1  6  1  0  0  0
  6  7  1  0  0  0
  5 18  1  0  0  0
 18 19  2  0  0  0
 18 20  1  0  0  0
 20 21  1  0  0  0
 21 22  2  0  0  0
 22 23  1  0  0  0
 23 24  2  0  0  0
 24 25  1  0  0  0
 25 26  2  0  0  0
 21 26  1  0  0  0
 25 27  1  0  0  0
 27 28  2  0  0  0
 28 29  1  0  0  0
 24 29  1  0  0  0
  4  8  1  0  0  0
  3  9  1  0  0  0
 10 11  1  0  0  0
 29 30  1  0  0  0
M  END
> <minimizedAffinity>
-8.21563

$$$$
mol_58252002_24


 30 32  0  0  0  0  0  0  0  0999 V2000
    1.1845   -2.6848  -21.1113 C   0  0  0  0  0  0  0  0  0  0  0  0
    1.6478   -3.3264  -22.2560 C   0  0  0  0  0  0  0  0  0  0  0  0
    3.0016   -3.5924  -22.3770 C   0  0  0  0  0  0  0  0  0  0  0  0
    3.9076   -3.1608  -21.4084 C   0  0  0  0  0  0  0  0  0  0  0  0
    3.4755   -2.4693  -20.2631 C   0  0  0  0  0  0  0  0  0  0  0  0
    2.0889   -2.3304  -20.0842 C   0  0  0  0  0  0  0  0  0  0  0  0
    1.5936   -1.7822  -18.9674 F   0  0  0  0  0  0  0  0  0  0  0  0
    5.2053   -3.4103  -21.6337 F   0  0  0  0  0  0  0  0  0  0  0  0
    3.4405   -4.2329  -23.4687 F   0  0  0  0  0  0  0  0  0  0  0  0
   -0.2252   -2.4323  -21.0695 N   0  0  0  0  0  0  0  0  0  0  0  0
   -0.5549   -2.0587  -21.9666 H   0  0  0  0  0  0  0  0  0  0  0  0
   -1.3570   -3.6187  -20.6687 S   0  0  0  0  0  0  0  0  0  0  0  0
   -0.7119   -4.4684  -19.6869 O   0  0  0  0  0  0  0  0  0  0  0  0
   -1.7591   -4.1758  -21.9411 O   0  0  0  0  0  0  0  0  0  0  0  0
   -2.8260   -2.8534  -19.9470 C   0  0  0  0  0  0  0  0  0  0  0  0
   -4.8885   -2.2099  -21.1940 C   0  0  0  0  0  0  0  0  0  0  0  0
   -3.4972   -1.7971  -20.8092 C   0  0  0  0  0  0  0  0  0  0  0  0
    4.5199   -1.7996  -19.4055 C   0  0  0  0  0  0  0  0  0  0  0  0
    4.7732   -0.6100  -19.6115 O   0  0  0  0  0  0  0  0  0  0  0  0
    5.2154   -2.4892  -18.2326 C   0  0  0  0  0  0  0  0  0  0  0  0
    6.6408   -2.9171  -18.5049 C   0  0  0  0  0  0  0  0  0  0  0  0
    7.1125   -4.1982  -18.1958 C   0  0  0  0  0  0  0  0  0  0  0  0
    8.3065   -4.7253  -18.5791 N   0  0  0  0  0  0  0  0  0  0  0  0
    9.0367   -3.8792  -19.3302 C   0  0  0  0  0  0  0  0  0  0  0  0
    8.7400   -2.5560  -19.6333 C   0  0  0  0  0  0  0  0  0  0  0  0
    7.5262   -2.0365  -19.1492 C   0  0  0  0  0  0  0  0  0  0  0  0
    9.7696   -2.0862  -20.4937 C   0  0  0  0  0  0  0  0  0  0  0  0
   10.6012   -3.1533  -20.7667 C   0  0  0  0  0  0  0  0  0  0  0  0
   10.1707   -4.2220  -20.0191 N   0  0  0  0  0  0  0  0  0  0  0  0
   10.5579   -5.1544  -20.0320 H   0  0  0  0  0  0  0  0  0  0  0  0
 16 17  1  0  0  0
 17 15  1  0  0  0
 15 12  1  0  0  0
 12 13  2  0  0  0
 12 14  2  0  0  0
 12 10  1  0  0  0
 10  1  1  0  0  0
  1  2  2  0  0  0
  2  3  1  0  0  0
  3  4  2  0  0  0
  4  5  1  0  0  0
  5  6  2  0  0  0
  1  6  1  0  0  0
  6  7  1  0  0  0
  5 18  1  0  0  0
 18 19  2  0  0  0
 18 20  1  0  0  0
 20 21  1  0  0  0
 21 22  2  0  0  0
 22 23  1  0  0  0
 23 24  2  0  0  0
 24 25  1  0  0  0
 25 26  2  0  0  0
 21 26  1  0  0  0
 25 27  1  0  0  0
 27 28  2  0  0  0
 28 29  1  0  0  0
 24 29  1  0  0  0
  4  8  1  0  0  0
  3  9  1  0  0  0
 10 11  1  0  0  0
 29 30  1  0  0  0
M  END
> <minimizedAffinity>
-8.19381

$$$$
mol_58251967_25


 28 30  0  0  0  0  0  0  0  0999 V2000
   -2.5488   -2.2798  -20.6330 C   0  0  0  0  0  0  0  0  0  0  0  0
   -1.2042   -2.4667  -20.3365 C   0  0  0  0  0  0  0  0  0  0  0  0
   -0.3370   -1.3806  -20.1718 C   0  0  0  0  0  0  0  0  0  0  0  0
   -0.8150   -0.1087  -20.4745 C   0  0  0  0  0  0  0  0  0  0  0  0
   -2.1458    0.0780  -20.8680 C   0  0  0  0  0  0  0  0  0  0  0  0
   -3.0307   -1.0054  -20.9098 C   0  0  0  0  0  0  0  0  0  0  0  0
   -0.0381    0.9764  -20.3766 F   0  0  0  0  0  0  0  0  0  0  0  0
   -3.3850   -3.4289  -20.5831 N   0  0  0  0  0  0  0  0  0  0  0  0
   -3.6158   -3.7569  -21.5261 H   0  0  0  0  0  0  0  0  0  0  0  0
   -4.8546   -3.3869  -19.7619 S   0  0  0  0  0  0  0  0  0  0  0  0
   -5.1678   -4.7567  -19.4078 O   0  0  0  0  0  0  0  0  0  0  0  0
   -5.7312   -2.6638  -20.6606 O   0  0  0  0  0  0  0  0  0  0  0  0
   -4.7137   -2.3938  -18.2623 C   0  0  0  0  0  0  0  0  0  0  0  0
   -5.5332   -3.0119  -15.9230 C   0  0  0  0  0  0  0  0  0  0  0  0
   -4.4402   -3.1411  -16.9600 C   0  0  0  0  0  0  0  0  0  0  0  0
    1.0081   -1.6884  -19.6004 C   0  0  0  0  0  0  0  0  0  0  0  0
    1.3472   -1.1325  -18.5523 O   0  0  0  0  0  0  0  0  0  0  0  0
    1.9365   -2.6925  -20.2462 C   0  0  0  0  0  0  0  0  0  0  0  0
    3.3113   -2.5873  -19.6570 C   0  0  0  0  0  0  0  0  0  0  0  0
    3.5591   -3.0141  -18.3475 C   0  0  0  0  0  0  0  0  0  0  0  0
    4.7751   -3.1423  -17.7765 N   0  0  0  0  0  0  0  0  0  0  0  0
    5.7722   -2.7868  -18.6027 C   0  0  0  0  0  0  0  0  0  0  0  0
    5.6691   -2.2701  -19.8885 C   0  0  0  0  0  0  0  0  0  0  0  0
    4.3849   -2.1370  -20.4319 C   0  0  0  0  0  0  0  0  0  0  0  0
    6.9921   -2.0326  -20.3439 C   0  0  0  0  0  0  0  0  0  0  0  0
    7.8547   -2.4602  -19.3558 C   0  0  0  0  0  0  0  0  0  0  0  0
    7.0990   -2.9093  -18.3030 N   0  0  0  0  0  0  0  0  0  0  0  0
    7.4374   -3.3015  -17.4369 H   0  0  0  0  0  0  0  0  0  0  0  0
 14 15  1  0  0  0
 15 13  1  0  0  0
 13 10  1  0  0  0
 10 11  2  0  0  0
 10 12  2  0  0  0
 10  8  1  0  0  0
  8  1  1  0  0  0
  1  2  2  0  0  0
  2  3  1  0  0  0
  3  4  2  0  0  0
  4  5  1  0  0  0
  5  6  2  0  0  0
  1  6  1  0  0  0
  4  7  1  0  0  0
  3 16  1  0  0  0
 16 17  2  0  0  0
 16 18  1  0  0  0
 18 19  1  0  0  0
 19 20  2  0  0  0
 20 21  1  0  0  0
 21 22  2  0  0  0
 22 23  1  0  0  0
 23 24  2  0  0  0
 19 24  1  0  0  0
 23 25  1  0  0  0
 25 26  2  0  0  0
 26 27  1  0  0  0
 22 27  1  0  0  0
  8  9  1  0  0  0
 27 28  1  0  0  0
M  END
> <minimizedAffinity>
-10.29312

$$$$
mol_58251967_25


 28 30  0  0  0  0  0  0  0  0999 V2000
   -2.5289   -2.2489  -20.6898 C   0  0  0  0  0  0  0  0  0  0  0  0
   -1.1959   -2.4621  -20.3602 C   0  0  0  0  0  0  0  0  0  0  0  0
   -0.3151   -1.3928  -20.1610 C   0  0  0  0  0  0  0  0  0  0  0  0
   -0.7634   -0.1098  -20.4621 C   0  0  0  0  0  0  0  0  0  0  0  0
   -2.0799    0.1039  -20.8882 C   0  0  0  0  0  0  0  0  0  0  0  0
   -2.9817   -0.9636  -20.9651 C   0  0  0  0  0  0  0  0  0  0  0  0
    0.0290    0.9606  -20.3320 F   0  0  0  0  0  0  0  0  0  0  0  0
   -3.3855   -3.3839  -20.6744 N   0  0  0  0  0  0  0  0  0  0  0  0
   -3.6087   -3.6891  -21.6268 H   0  0  0  0  0  0  0  0  0  0  0  0
   -4.8655   -3.3325  -19.8726 S   0  0  0  0  0  0  0  0  0  0  0  0
   -5.2037   -4.7027  -19.5440 O   0  0  0  0  0  0  0  0  0  0  0  0
   -5.7188   -2.5826  -20.7718 O   0  0  0  0  0  0  0  0  0  0  0  0
   -4.7305   -2.3646  -18.3560 C   0  0  0  0  0  0  0  0  0  0  0  0
   -5.4857   -2.9922  -15.9977 C   0  0  0  0  0  0  0  0  0  0  0  0
   -4.4290   -3.1301  -17.0705 C   0  0  0  0  0  0  0  0  0  0  0  0
    1.0091   -1.7298  -19.5580 C   0  0  0  0  0  0  0  0  0  0  0  0
    1.5723   -0.8849  -18.8570 O   0  0  0  0  0  0  0  0  0  0  0  0
    1.6473   -3.0878  -19.7468 C   0  0  0  0  0  0  0  0  0  0  0  0
    2.4592   -3.1129  -21.0071 C   0  0  0  0  0  0  0  0  0  0  0  0
    3.7935   -2.6906  -21.0028 C   0  0  0  0  0  0  0  0  0  0  0  0
    4.6711   -2.8391  -22.0172 N   0  0  0  0  0  0  0  0  0  0  0  0
    4.1232   -3.4333  -23.0895 C   0  0  0  0  0  0  0  0  0  0  0  0
    2.8015   -3.8259  -23.2628 C   0  0  0  0  0  0  0  0  0  0  0  0
    1.9228   -3.6340  -22.1889 C   0  0  0  0  0  0  0  0  0  0  0  0
    2.7054   -4.3850  -24.5637 C   0  0  0  0  0  0  0  0  0  0  0  0
    3.9691   -4.3692  -25.1171 C   0  0  0  0  0  0  0  0  0  0  0  0
    4.8172   -3.7828  -24.2126 N   0  0  0  0  0  0  0  0  0  0  0  0
    5.8108   -3.6405  -24.3165 H   0  0  0  0  0  0  0  0  0  0  0  0
 14 15  1  0  0  0
 15 13  1  0  0  0
 13 10  1  0  0  0
 10 11  2  0  0  0
 10 12  2  0  0  0
 10  8  1  0  0  0
  8  1  1  0  0  0
  1  2  2  0  0  0
  2  3  1  0  0  0
  3  4  2  0  0  0
  4  5  1  0  0  0
  5  6  2  0  0  0
  1  6  1  0  0  0
  4  7  1  0  0  0
  3 16  1  0  0  0
 16 17  2  0  0  0
 16 18  1  0  0  0
 18 19  1  0  0  0
 19 20  2  0  0  0
 20 21  1  0  0  0
 21 22  2  0  0  0
 22 23  1  0  0  0
 23 24  2  0  0  0
 19 24  1  0  0  0
 23 25  1  0  0  0
 25 26  2  0  0  0
 26 27  1  0  0  0
 22 27  1  0  0  0
  8  9  1  0  0  0
 27 28  1  0  0  0
M  END
> <minimizedAffinity>
-9.72123

$$$$
mol_58251967_25


 28 30  0  0  0  0  0  0  0  0999 V2000
   -2.4221   -2.3132  -20.7281 C   0  0  0  0  0  0  0  0  0  0  0  0
   -1.0835   -2.4894  -20.3996 C   0  0  0  0  0  0  0  0  0  0  0  0
   -0.2336   -1.3961  -20.1964 C   0  0  0  0  0  0  0  0  0  0  0  0
   -0.7184   -0.1253  -20.4924 C   0  0  0  0  0  0  0  0  0  0  0  0
   -2.0407    0.0523  -20.9176 C   0  0  0  0  0  0  0  0  0  0  0  0
   -2.9116   -1.0403  -20.9984 C   0  0  0  0  0  0  0  0  0  0  0  0
    0.0430    0.9669  -20.3583 F   0  0  0  0  0  0  0  0  0  0  0  0
   -3.2458   -3.4723  -20.7170 N   0  0  0  0  0  0  0  0  0  0  0  0
   -3.2181   -3.9518  -21.6223 H   0  0  0  0  0  0  0  0  0  0  0  0
   -4.8810   -3.3605  -20.3304 S   0  0  0  0  0  0  0  0  0  0  0  0
   -5.0358   -2.1560  -19.5397 O   0  0  0  0  0  0  0  0  0  0  0  0
   -5.1839   -4.6472  -19.7377 O   0  0  0  0  0  0  0  0  0  0  0  0
   -5.8782   -3.2304  -21.8283 C   0  0  0  0  0  0  0  0  0  0  0  0
   -6.2109   -1.4424  -23.6222 C   0  0  0  0  0  0  0  0  0  0  0  0
   -6.4213   -1.8484  -22.1808 C   0  0  0  0  0  0  0  0  0  0  0  0
    1.0998   -1.6974  -19.5948 C   0  0  0  0  0  0  0  0  0  0  0  0
    1.4561   -1.0638  -18.5978 O   0  0  0  0  0  0  0  0  0  0  0  0
    1.9950   -2.7842  -20.1470 C   0  0  0  0  0  0  0  0  0  0  0  0
    3.3810   -2.6525  -19.5903 C   0  0  0  0  0  0  0  0  0  0  0  0
    3.6632   -3.0557  -18.2803 C   0  0  0  0  0  0  0  0  0  0  0  0
    4.8931   -3.1597  -17.7346 N   0  0  0  0  0  0  0  0  0  0  0  0
    5.8670   -2.8045  -18.5882 C   0  0  0  0  0  0  0  0  0  0  0  0
    5.7288   -2.3093  -19.8792 C   0  0  0  0  0  0  0  0  0  0  0  0
    4.4314   -2.2009  -20.3958 C   0  0  0  0  0  0  0  0  0  0  0  0
    7.0383   -2.0623  -20.3676 C   0  0  0  0  0  0  0  0  0  0  0  0
    7.9280   -2.4637  -19.3925 C   0  0  0  0  0  0  0  0  0  0  0  0
    7.2016   -2.9057  -18.3163 N   0  0  0  0  0  0  0  0  0  0  0  0
    7.5641   -3.2801  -17.4521 H   0  0  0  0  0  0  0  0  0  0  0  0
 14 15  1  0  0  0
 15 13  1  0  0  0
 13 10  1  0  0  0
 10 11  2  0  0  0
 10 12  2  0  0  0
 10  8  1  0  0  0
  8  1  1  0  0  0
  1  2  2  0  0  0
  2  3  1  0  0  0
  3  4  2  0  0  0
  4  5  1  0  0  0
  5  6  2  0  0  0
  1  6  1  0  0  0
  4  7  1  0  0  0
  3 16  1  0  0  0
 16 17  2  0  0  0
 16 18  1  0  0  0
 18 19  1  0  0  0
 19 20  2  0  0  0
 20 21  1  0  0  0
 21 22  2  0  0  0
 22 23  1  0  0  0
 23 24  2  0  0  0
 19 24  1  0  0  0
 23 25  1  0  0  0
 25 26  2  0  0  0
 26 27  1  0  0  0
 22 27  1  0  0  0
  8  9  1  0  0  0
 27 28  1  0  0  0
M  END
> <minimizedAffinity>
-9.33095

$$$$
mol_58252042_26


 30 32  0  0  0  0  0  0  0  0999 V2000
   -2.4478   -2.3493  -20.6841 C   0  0  0  0  0  0  0  0  0  0  0  0
   -1.1100   -2.7597  -20.5897 C   0  0  0  0  0  0  0  0  0  0  0  0
   -0.0556   -1.8392  -20.5585 C   0  0  0  0  0  0  0  0  0  0  0  0
   -0.3677   -0.4863  -20.6660 C   0  0  0  0  0  0  0  0  0  0  0  0
   -1.6950   -0.0594  -20.7042 C   0  0  0  0  0  0  0  0  0  0  0  0
   -2.7348   -0.9901  -20.6576 C   0  0  0  0  0  0  0  0  0  0  0  0
    0.5840    0.4541  -20.7007 F   0  0  0  0  0  0  0  0  0  0  0  0
   -0.8720   -4.0822  -20.5687 F   0  0  0  0  0  0  0  0  0  0  0  0
   -3.4505   -3.3641  -20.7149 N   0  0  0  0  0  0  0  0  0  0  0  0
   -3.5900   -3.8397  -21.6117 H   0  0  0  0  0  0  0  0  0  0  0  0
   -4.8240   -3.3518  -19.7599 S   0  0  0  0  0  0  0  0  0  0  0  0
   -5.2543   -4.7158  -19.5402 O   0  0  0  0  0  0  0  0  0  0  0  0
   -5.7031   -2.3968  -20.4006 O   0  0  0  0  0  0  0  0  0  0  0  0
   -4.2828   -2.6148  -18.2057 C   0  0  0  0  0  0  0  0  0  0  0  0
   -5.4864   -3.0218  -15.9841 C   0  0  0  0  0  0  0  0  0  0  0  0
   -4.4452   -3.5094  -16.9784 C   0  0  0  0  0  0  0  0  0  0  0  0
    1.3322   -2.3409  -20.3686 C   0  0  0  0  0  0  0  0  0  0  0  0
    2.0673   -2.4442  -21.3506 O   0  0  0  0  0  0  0  0  0  0  0  0
    1.8464   -2.7355  -18.9989 C   0  0  0  0  0  0  0  0  0  0  0  0
    3.3156   -2.4980  -18.7692 C   0  0  0  0  0  0  0  0  0  0  0  0
    4.2508   -3.0916  -19.6311 C   0  0  0  0  0  0  0  0  0  0  0  0
    5.6117   -2.8389  -19.4034 C   0  0  0  0  0  0  0  0  0  0  0  0
    5.9414   -2.0121  -18.3358 C   0  0  0  0  0  0  0  0  0  0  0  0
    7.3078   -1.9163  -18.2736 N   0  0  0  0  0  0  0  0  0  0  0  0
    7.8728   -2.6448  -19.2907 C   0  0  0  0  0  0  0  0  0  0  0  0
    6.8372   -3.2083  -19.9933 C   0  0  0  0  0  0  0  0  0  0  0  0
    6.9747   -3.9703  -21.0409 F   0  0  0  0  0  0  0  0  0  0  0  0
    5.0968   -1.3916  -17.4939 N   0  0  0  0  0  0  0  0  0  0  0  0
    3.7957   -1.6447  -17.7719 C   0  0  0  0  0  0  0  0  0  0  0  0
    7.7973   -1.3757  -17.5753 H   0  0  0  0  0  0  0  0  0  0  0  0
 15 16  1  0  0  0
 16 14  1  0  0  0
 14 11  1  0  0  0
 11 12  2  0  0  0
 11 13  2  0  0  0
 11  9  1  0  0  0
  9  1  1  0  0  0
  1  2  2  0  0  0
  2  3  1  0  0  0
  3  4  2  0  0  0
  4  5  1  0  0  0
  5  6  2  0  0  0
  1  6  1  0  0  0
  4  7  1  0  0  0
  3 17  1  0  0  0
 17 18  2  0  0  0
 17 19  1  0  0  0
 19 20  1  0  0  0
 20 21  2  0  0  0
 21 22  1  0  0  0
 22 23  2  0  0  0
 23 24  1  0  0  0
 24 25  1  0  0  0
 25 26  2  0  0  0
 22 26  1  0  0  0
 26 27  1  0  0  0
 23 28  1  0  0  0
 28 29  2  0  0  0
 20 29  1  0  0  0
  2  8  1  0  0  0
  9 10  1  0  0  0
 24 30  1  0  0  0
M  END
> <minimizedAffinity>
-10.63964

$$$$
mol_58252042_26


 30 32  0  0  0  0  0  0  0  0999 V2000
   -2.3531   -2.3370  -20.6628 C   0  0  0  0  0  0  0  0  0  0  0  0
   -1.0256   -2.7558  -20.4916 C   0  0  0  0  0  0  0  0  0  0  0  0
    0.0296   -1.8415  -20.3879 C   0  0  0  0  0  0  0  0  0  0  0  0
   -0.2687   -0.4859  -20.5011 C   0  0  0  0  0  0  0  0  0  0  0  0
   -1.5891   -0.0513  -20.6154 C   0  0  0  0  0  0  0  0  0  0  0  0
   -2.6345   -0.9765  -20.6407 C   0  0  0  0  0  0  0  0  0  0  0  0
    0.6880    0.4494  -20.4691 F   0  0  0  0  0  0  0  0  0  0  0  0
   -0.7959   -4.0796  -20.4689 F   0  0  0  0  0  0  0  0  0  0  0  0
   -3.3573   -3.3459  -20.7639 N   0  0  0  0  0  0  0  0  0  0  0  0
   -3.3864   -3.8733  -21.6419 H   0  0  0  0  0  0  0  0  0  0  0  0
   -4.8421   -3.2685  -19.9972 S   0  0  0  0  0  0  0  0  0  0  0  0
   -5.3397   -4.6133  -19.8027 O   0  0  0  0  0  0  0  0  0  0  0  0
   -5.6002   -2.3078  -20.7703 O   0  0  0  0  0  0  0  0  0  0  0  0
   -4.4846   -2.5035  -18.4040 C   0  0  0  0  0  0  0  0  0  0  0  0
   -5.2910   -2.9877  -16.0238 C   0  0  0  0  0  0  0  0  0  0  0  0
   -4.4775   -3.4639  -17.2162 C   0  0  0  0  0  0  0  0  0  0  0  0
    1.4008   -2.3527  -20.1192 C   0  0  0  0  0  0  0  0  0  0  0  0
    1.6070   -2.9888  -19.0858 O   0  0  0  0  0  0  0  0  0  0  0  0
    2.5406   -2.0937  -21.0835 C   0  0  0  0  0  0  0  0  0  0  0  0
    2.8639   -3.2288  -22.0188 C   0  0  0  0  0  0  0  0  0  0  0  0
    4.2066   -3.5480  -22.2740 C   0  0  0  0  0  0  0  0  0  0  0  0
    4.4777   -4.6211  -23.1357 C   0  0  0  0  0  0  0  0  0  0  0  0
    3.3924   -5.2990  -23.6783 C   0  0  0  0  0  0  0  0  0  0  0  0
    3.8708   -6.2846  -24.5028 N   0  0  0  0  0  0  0  0  0  0  0  0
    5.2435   -6.2764  -24.4910 C   0  0  0  0  0  0  0  0  0  0  0  0
    5.6236   -5.2624  -23.6479 C   0  0  0  0  0  0  0  0  0  0  0  0
    6.8566   -4.9448  -23.3723 F   0  0  0  0  0  0  0  0  0  0  0  0
    2.0882   -5.0634  -23.4526 N   0  0  0  0  0  0  0  0  0  0  0  0
    1.8794   -4.0372  -22.5938 C   0  0  0  0  0  0  0  0  0  0  0  0
    3.2762   -6.9131  -25.0232 H   0  0  0  0  0  0  0  0  0  0  0  0
 15 16  1  0  0  0
 16 14  1  0  0  0
 14 11  1  0  0  0
 11 12  2  0  0  0
 11 13  2  0  0  0
 11  9  1  0  0  0
  9  1  1  0  0  0
  1  2  2  0  0  0
  2  3  1  0  0  0
  3  4  2  0  0  0
  4  5  1  0  0  0
  5  6  2  0  0  0
  1  6  1  0  0  0
  4  7  1  0  0  0
  3 17  1  0  0  0
 17 18  2  0  0  0
 17 19  1  0  0  0
 19 20  1  0  0  0
 20 21  2  0  0  0
 21 22  1  0  0  0
 22 23  2  0  0  0
 23 24  1  0  0  0
 24 25  1  0  0  0
 25 26  2  0  0  0
 22 26  1  0  0  0
 26 27  1  0  0  0
 23 28  1  0  0  0
 28 29  2  0  0  0
 20 29  1  0  0  0
  2  8  1  0  0  0
  9 10  1  0  0  0
 24 30  1  0  0  0
M  END
> <minimizedAffinity>
-9.88771

$$$$
mol_58252042_26


 30 32  0  0  0  0  0  0  0  0999 V2000
    2.0988   -2.7396  -19.5642 C   0  0  0  0  0  0  0  0  0  0  0  0
    3.1779   -2.5424  -20.4381 C   0  0  0  0  0  0  0  0  0  0  0  0
    4.4994   -2.4876  -19.9790 C   0  0  0  0  0  0  0  0  0  0  0  0
    4.7183   -2.5944  -18.6079 C   0  0  0  0  0  0  0  0  0  0  0  0
    3.6620   -2.8465  -17.7325 C   0  0  0  0  0  0  0  0  0  0  0  0
    2.3597   -2.9735  -18.2197 C   0  0  0  0  0  0  0  0  0  0  0  0
    5.9451   -2.4962  -18.0821 F   0  0  0  0  0  0  0  0  0  0  0  0
    2.8920   -2.3680  -21.7395 F   0  0  0  0  0  0  0  0  0  0  0  0
    0.7885   -2.7746  -20.1284 N   0  0  0  0  0  0  0  0  0  0  0  0
    0.5892   -3.5484  -20.7699 H   0  0  0  0  0  0  0  0  0  0  0  0
   -0.1337   -1.4136  -20.4380 S   0  0  0  0  0  0  0  0  0  0  0  0
    0.0276   -1.0444  -21.8277 O   0  0  0  0  0  0  0  0  0  0  0  0
    0.2216   -0.4869  -19.3841 O   0  0  0  0  0  0  0  0  0  0  0  0
   -1.8301   -1.9420  -20.1300 C   0  0  0  0  0  0  0  0  0  0  0  0
   -4.1943   -1.9112  -21.1095 C   0  0  0  0  0  0  0  0  0  0  0  0
   -2.8973   -1.1513  -20.8845 C   0  0  0  0  0  0  0  0  0  0  0  0
    5.6012   -2.3642  -20.9711 C   0  0  0  0  0  0  0  0  0  0  0  0
    6.1030   -1.2576  -21.1687 O   0  0  0  0  0  0  0  0  0  0  0  0
    6.1024   -3.5667  -21.7450 C   0  0  0  0  0  0  0  0  0  0  0  0
    5.3867   -3.8431  -23.0408 C   0  0  0  0  0  0  0  0  0  0  0  0
    4.6786   -5.0454  -23.1920 C   0  0  0  0  0  0  0  0  0  0  0  0
    4.0073   -5.2683  -24.4033 C   0  0  0  0  0  0  0  0  0  0  0  0
    4.0884   -4.2770  -25.3743 C   0  0  0  0  0  0  0  0  0  0  0  0
    3.3922   -4.6991  -26.4775 N   0  0  0  0  0  0  0  0  0  0  0  0
    2.8418   -5.9335  -26.2370 C   0  0  0  0  0  0  0  0  0  0  0  0
    3.2089   -6.2863  -24.9625 C   0  0  0  0  0  0  0  0  0  0  0  0
    2.8711   -7.3961  -24.3697 F   0  0  0  0  0  0  0  0  0  0  0  0
    4.7229   -3.0954  -25.2821 N   0  0  0  0  0  0  0  0  0  0  0  0
    5.3312   -2.9163  -24.0854 C   0  0  0  0  0  0  0  0  0  0  0  0
    3.3083   -4.1565  -27.3248 H   0  0  0  0  0  0  0  0  0  0  0  0
 15 16  1  0  0  0
 16 14  1  0  0  0
 14 11  1  0  0  0
 11 12  2  0  0  0
 11 13  2  0  0  0
 11  9  1  0  0  0
  9  1  1  0  0  0
  1  2  2  0  0  0
  2  3  1  0  0  0
  3  4  2  0  0  0
  4  5  1  0  0  0
  5  6  2  0  0  0
  1  6  1  0  0  0
  4  7  1  0  0  0
  3 17  1  0  0  0
 17 18  2  0  0  0
 17 19  1  0  0  0
 19 20  1  0  0  0
 20 21  2  0  0  0
 21 22  1  0  0  0
 22 23  2  0  0  0
 23 24  1  0  0  0
 24 25  1  0  0  0
 25 26  2  0  0  0
 22 26  1  0  0  0
 26 27  1  0  0  0
 23 28  1  0  0  0
 28 29  2  0  0  0
 20 29  1  0  0  0
  2  8  1  0  0  0
  9 10  1  0  0  0
 24 30  1  0  0  0
M  END
> <minimizedAffinity>
-9.82580

$$$$
mol_58251942_27


 29 31  0  0  0  0  0  0  0  0999 V2000
   -1.8740   -2.9178  -20.8116 C   0  0  0  0  0  0  0  0  0  0  0  0
   -1.4482   -4.0438  -21.5117 C   0  0  0  0  0  0  0  0  0  0  0  0
   -0.0806   -4.3125  -21.5985 C   0  0  0  0  0  0  0  0  0  0  0  0
    0.8688   -3.4356  -21.0815 C   0  0  0  0  0  0  0  0  0  0  0  0
    0.4400   -2.2820  -20.4260 C   0  0  0  0  0  0  0  0  0  0  0  0
   -0.9176   -2.0967  -20.1993 C   0  0  0  0  0  0  0  0  0  0  0  0
   -1.3105   -1.1644  -19.3234 F   0  0  0  0  0  0  0  0  0  0  0  0
    0.3331   -5.4216  -22.2230 F   0  0  0  0  0  0  0  0  0  0  0  0
   -3.2631   -2.5683  -20.6827 N   0  0  0  0  0  0  0  0  0  0  0  0
   -3.4128   -1.5684  -20.5211 H   0  0  0  0  0  0  0  0  0  0  0  0
   -4.2258   -3.3970  -19.5642 S   0  0  0  0  0  0  0  0  0  0  0  0
   -3.3173   -4.1504  -18.7326 O   0  0  0  0  0  0  0  0  0  0  0  0
   -5.2517   -4.0840  -20.3272 O   0  0  0  0  0  0  0  0  0  0  0  0
   -5.0324   -2.1517  -18.5673 C   0  0  0  0  0  0  0  0  0  0  0  0
   -5.4832   -2.9528  -16.1904 C   0  0  0  0  0  0  0  0  0  0  0  0
   -4.6542   -2.0719  -17.0952 C   0  0  0  0  0  0  0  0  0  0  0  0
    1.4371   -1.2468  -20.0630 C   0  0  0  0  0  0  0  0  0  0  0  0
    1.5771   -0.2980  -20.8341 O   0  0  0  0  0  0  0  0  0  0  0  0
    2.2549   -1.3614  -18.7832 C   0  0  0  0  0  0  0  0  0  0  0  0
    3.7059   -1.8080  -18.8366 C   0  0  0  0  0  0  0  0  0  0  0  0
    4.5172   -1.4824  -17.7374 C   0  0  0  0  0  0  0  0  0  0  0  0
    5.8612   -1.6340  -17.6388 N   0  0  0  0  0  0  0  0  0  0  0  0
    6.4088   -2.1378  -18.7556 C   0  0  0  0  0  0  0  0  0  0  0  0
    5.7453   -2.5534  -19.9016 C   0  0  0  0  0  0  0  0  0  0  0  0
    4.3389   -2.4269  -19.9234 C   0  0  0  0  0  0  0  0  0  0  0  0
    6.7477   -2.9599  -20.8280 C   0  0  0  0  0  0  0  0  0  0  0  0
    7.9765   -2.7480  -20.2358 C   0  0  0  0  0  0  0  0  0  0  0  0
    7.7531   -2.2902  -18.9614 N   0  0  0  0  0  0  0  0  0  0  0  0
    8.4561   -2.0443  -18.2793 H   0  0  0  0  0  0  0  0  0  0  0  0
 15 16  1  0  0  0
 16 14  1  0  0  0
 14 11  1  0  0  0
 11 12  2  0  0  0
 11 13  2  0  0  0
 11  9  1  0  0  0
  9  1  1  0  0  0
  1  2  2  0  0  0
  2  3  1  0  0  0
  3  4  2  0  0  0
  4  5  1  0  0  0
  5  6  2  0  0  0
  1  6  1  0  0  0
  6  7  1  0  0  0
  5 17  1  0  0  0
 17 18  2  0  0  0
 17 19  1  0  0  0
 19 20  1  0  0  0
 20 21  2  0  0  0
 21 22  1  0  0  0
 22 23  2  0  0  0
 23 24  1  0  0  0
 24 25  2  0  0  0
 20 25  1  0  0  0
 24 26  1  0  0  0
 26 27  2  0  0  0
 27 28  1  0  0  0
 23 28  1  0  0  0
  3  8  1  0  0  0
  9 10  1  0  0  0
 28 29  1  0  0  0
M  END
> <minimizedAffinity>
-8.87803

$$$$
mol_58251942_27


 29 31  0  0  0  0  0  0  0  0999 V2000
   -1.4156   -2.2324  -20.6106 C   0  0  0  0  0  0  0  0  0  0  0  0
   -1.5841   -0.8506  -20.6501 C   0  0  0  0  0  0  0  0  0  0  0  0
   -0.4653   -0.0260  -20.5146 C   0  0  0  0  0  0  0  0  0  0  0  0
    0.7977   -0.5484  -20.2506 C   0  0  0  0  0  0  0  0  0  0  0  0
    0.9537   -1.9310  -20.1600 C   0  0  0  0  0  0  0  0  0  0  0  0
   -0.1249   -2.7552  -20.4537 C   0  0  0  0  0  0  0  0  0  0  0  0
    0.0896   -4.0595  -20.6619 F   0  0  0  0  0  0  0  0  0  0  0  0
   -0.6119    1.3013  -20.6059 F   0  0  0  0  0  0  0  0  0  0  0  0
   -2.5172   -3.1484  -20.7353 N   0  0  0  0  0  0  0  0  0  0  0  0
   -2.9188   -3.1684  -21.6770 H   0  0  0  0  0  0  0  0  0  0  0  0
   -3.8119   -3.0401  -19.6506 S   0  0  0  0  0  0  0  0  0  0  0  0
   -3.7302   -1.7263  -19.0574 O   0  0  0  0  0  0  0  0  0  0  0  0
   -3.7501   -4.2217  -18.8101 O   0  0  0  0  0  0  0  0  0  0  0  0
   -5.3043   -3.1465  -20.6287 C   0  0  0  0  0  0  0  0  0  0  0  0
   -6.4341   -2.3840  -22.7819 C   0  0  0  0  0  0  0  0  0  0  0  0
   -5.6107   -1.9957  -21.5766 C   0  0  0  0  0  0  0  0  0  0  0  0
    2.2417   -2.4803  -19.6731 C   0  0  0  0  0  0  0  0  0  0  0  0
    2.2358   -3.0688  -18.5924 O   0  0  0  0  0  0  0  0  0  0  0  0
    3.5201   -2.3165  -20.4846 C   0  0  0  0  0  0  0  0  0  0  0  0
    3.7645   -3.1748  -21.7140 C   0  0  0  0  0  0  0  0  0  0  0  0
    5.1010   -3.4108  -22.0751 C   0  0  0  0  0  0  0  0  0  0  0  0
    5.5499   -4.0032  -23.2094 N   0  0  0  0  0  0  0  0  0  0  0  0
    4.5547   -4.3596  -24.0363 C   0  0  0  0  0  0  0  0  0  0  0  0
    3.1909   -4.2413  -23.8074 C   0  0  0  0  0  0  0  0  0  0  0  0
    2.7820   -3.6711  -22.5818 C   0  0  0  0  0  0  0  0  0  0  0  0
    2.5386   -4.7016  -24.9868 C   0  0  0  0  0  0  0  0  0  0  0  0
    3.5157   -5.0483  -25.8982 C   0  0  0  0  0  0  0  0  0  0  0  0
    4.7341   -4.8768  -25.2905 N   0  0  0  0  0  0  0  0  0  0  0  0
    5.6404   -5.0468  -25.7024 H   0  0  0  0  0  0  0  0  0  0  0  0
 15 16  1  0  0  0
 16 14  1  0  0  0
 14 11  1  0  0  0
 11 12  2  0  0  0
 11 13  2  0  0  0
 11  9  1  0  0  0
  9  1  1  0  0  0
  1  2  2  0  0  0
  2  3  1  0  0  0
  3  4  2  0  0  0
  4  5  1  0  0  0
  5  6  2  0  0  0
  1  6  1  0  0  0
  6  7  1  0  0  0
  5 17  1  0  0  0
 17 18  2  0  0  0
 17 19  1  0  0  0
 19 20  1  0  0  0
 20 21  2  0  0  0
 21 22  1  0  0  0
 22 23  2  0  0  0
 23 24  1  0  0  0
 24 25  2  0  0  0
 20 25  1  0  0  0
 24 26  1  0  0  0
 26 27  2  0  0  0
 27 28  1  0  0  0
 23 28  1  0  0  0
  3  8  1  0  0  0
  9 10  1  0  0  0
 28 29  1  0  0  0
M  END
> <minimizedAffinity>
-8.71680

$$$$
mol_58251942_27


 29 31  0  0  0  0  0  0  0  0999 V2000
    2.1706   -1.3196  -20.1410 C   0  0  0  0  0  0  0  0  0  0  0  0
    1.2208   -0.3115  -19.9963 C   0  0  0  0  0  0  0  0  0  0  0  0
   -0.0637   -0.5103  -20.5068 C   0  0  0  0  0  0  0  0  0  0  0  0
   -0.3904   -1.6511  -21.2344 C   0  0  0  0  0  0  0  0  0  0  0  0
    0.5788   -2.6359  -21.4220 C   0  0  0  0  0  0  0  0  0  0  0  0
    1.8037   -2.5120  -20.7794 C   0  0  0  0  0  0  0  0  0  0  0  0
    2.6127   -3.5756  -20.7082 F   0  0  0  0  0  0  0  0  0  0  0  0
   -0.9969    0.4315  -20.3238 F   0  0  0  0  0  0  0  0  0  0  0  0
    3.5159   -1.1891  -19.6499 N   0  0  0  0  0  0  0  0  0  0  0  0
    4.2227   -1.4790  -20.3317 H   0  0  0  0  0  0  0  0  0  0  0  0
    3.9328   -1.9058  -18.1743 S   0  0  0  0  0  0  0  0  0  0  0  0
    2.8066   -2.7251  -17.7934 O   0  0  0  0  0  0  0  0  0  0  0  0
    4.3792   -0.8342  -17.3031 O   0  0  0  0  0  0  0  0  0  0  0  0
    5.3378   -2.9614  -18.5013 C   0  0  0  0  0  0  0  0  0  0  0  0
    7.0227   -2.3016  -20.2958 C   0  0  0  0  0  0  0  0  0  0  0  0
    5.7918   -3.1047  -19.9469 C   0  0  0  0  0  0  0  0  0  0  0  0
    0.3054   -3.7450  -22.3669 C   0  0  0  0  0  0  0  0  0  0  0  0
   -0.5431   -4.5739  -22.0393 O   0  0  0  0  0  0  0  0  0  0  0  0
    1.0520   -3.8488  -23.6903 C   0  0  0  0  0  0  0  0  0  0  0  0
    2.2962   -4.7129  -23.8044 C   0  0  0  0  0  0  0  0  0  0  0  0
    2.1071   -6.0716  -24.1054 C   0  0  0  0  0  0  0  0  0  0  0  0
    3.0459   -7.0502  -24.0964 N   0  0  0  0  0  0  0  0  0  0  0  0
    4.2579   -6.6019  -23.7342 C   0  0  0  0  0  0  0  0  0  0  0  0
    4.6183   -5.2911  -23.4545 C   0  0  0  0  0  0  0  0  0  0  0  0
    3.6107   -4.3051  -23.5386 C   0  0  0  0  0  0  0  0  0  0  0  0
    5.9889   -5.3190  -23.0687 C   0  0  0  0  0  0  0  0  0  0  0  0
    6.4043   -6.6352  -23.0920 C   0  0  0  0  0  0  0  0  0  0  0  0
    5.3547   -7.3970  -23.5406 N   0  0  0  0  0  0  0  0  0  0  0  0
    5.3495   -8.3992  -23.6653 H   0  0  0  0  0  0  0  0  0  0  0  0
 15 16  1  0  0  0
 16 14  1  0  0  0
 14 11  1  0  0  0
 11 12  2  0  0  0
 11 13  2  0  0  0
 11  9  1  0  0  0
  9  1  1  0  0  0
  1  2  2  0  0  0
  2  3  1  0  0  0
  3  4  2  0  0  0
  4  5  1  0  0  0
  5  6  2  0  0  0
  1  6  1  0  0  0
  6  7  1  0  0  0
  5 17  1  0  0  0
 17 18  2  0  0  0
 17 19  1  0  0  0
 19 20  1  0  0  0
 20 21  2  0  0  0
 21 22  1  0  0  0
 22 23  2  0  0  0
 23 24  1  0  0  0
 24 25  2  0  0  0
 20 25  1  0  0  0
 24 26  1  0  0  0
 26 27  2  0  0  0
 27 28  1  0  0  0
 23 28  1  0  0  0
  3  8  1  0  0  0
  9 10  1  0  0  0
 28 29  1  0  0  0
M  END
> <minimizedAffinity>
-8.71580

$$$$
mol_58251999_28


 32 34  0  0  0  0  0  0  0  0999 V2000
   -2.4925   -2.3443  -20.7074 C   0  0  0  0  0  0  0  0  0  0  0  0
   -1.1454   -2.7289  -20.6182 C   0  0  0  0  0  0  0  0  0  0  0  0
   -0.1112   -1.7846  -20.6013 C   0  0  0  0  0  0  0  0  0  0  0  0
   -0.4435   -0.4384  -20.7078 C   0  0  0  0  0  0  0  0  0  0  0  0
   -1.7765   -0.0369  -20.7361 C   0  0  0  0  0  0  0  0  0  0  0  0
   -2.7979   -0.9882  -20.6821 C   0  0  0  0  0  0  0  0  0  0  0  0
    0.4969    0.5131  -20.7500 F   0  0  0  0  0  0  0  0  0  0  0  0
   -0.8698   -4.0442  -20.6028 F   0  0  0  0  0  0  0  0  0  0  0  0
   -3.4821   -3.3718  -20.7354 N   0  0  0  0  0  0  0  0  0  0  0  0
   -3.4945   -3.9897  -21.5520 H   0  0  0  0  0  0  0  0  0  0  0  0
   -4.9099   -3.3635  -19.8675 S   0  0  0  0  0  0  0  0  0  0  0  0
   -5.3419   -4.7256  -19.6409 O   0  0  0  0  0  0  0  0  0  0  0  0
   -5.7607   -2.4330  -20.5787 O   0  0  0  0  0  0  0  0  0  0  0  0
   -4.4766   -2.5824  -18.3025 C   0  0  0  0  0  0  0  0  0  0  0  0
   -5.4322   -3.0129  -15.9680 C   0  0  0  0  0  0  0  0  0  0  0  0
   -4.5191   -3.4983  -17.0812 C   0  0  0  0  0  0  0  0  0  0  0  0
    1.2911   -2.2463  -20.4439 C   0  0  0  0  0  0  0  0  0  0  0  0
    1.9979   -2.3247  -21.4485 O   0  0  0  0  0  0  0  0  0  0  0  0
    1.8350   -2.6444  -19.0837 C   0  0  0  0  0  0  0  0  0  0  0  0
    3.3156   -2.4502  -18.8767 C   0  0  0  0  0  0  0  0  0  0  0  0
    3.7583   -1.7075  -17.7770 C   0  0  0  0  0  0  0  0  0  0  0  0
    5.0466   -1.4357  -17.4575 N   0  0  0  0  0  0  0  0  0  0  0  0
    5.9212   -1.9574  -18.3336 C   0  0  0  0  0  0  0  0  0  0  0  0
    5.6355   -2.7301  -19.4502 C   0  0  0  0  0  0  0  0  0  0  0  0
    4.2881   -3.0210  -19.7088 C   0  0  0  0  0  0  0  0  0  0  0  0
    6.8724   -3.0308  -20.0770 C   0  0  0  0  0  0  0  0  0  0  0  0
    7.8753   -2.4325  -19.3356 C   0  0  0  0  0  0  0  0  0  0  0  0
    7.2784   -1.8084  -18.2631 N   0  0  0  0  0  0  0  0  0  0  0  0
    7.7510   -1.2935  -17.5328 H   0  0  0  0  0  0  0  0  0  0  0  0
    9.3421   -2.3849  -19.5250 C   0  0  0  0  0  0  0  0  0  0  0  0
    9.6745   -1.3996  -20.3998 F   0  0  0  0  0  0  0  0  0  0  0  0
    9.9626   -2.0808  -18.3564 F   0  0  0  0  0  0  0  0  0  0  0  0
 15 16  1  0  0  0
 16 14  1  0  0  0
 14 11  1  0  0  0
 11 12  2  0  0  0
 11 13  2  0  0  0
 11  9  1  0  0  0
  9  1  1  0  0  0
  1  2  2  0  0  0
  2  3  1  0  0  0
  3  4  2  0  0  0
  4  5  1  0  0  0
  5  6  2  0  0  0
  1  6  1  0  0  0
  4  7  1  0  0  0
  3 17  1  0  0  0
 17 18  2  0  0  0
 17 19  1  0  0  0
 19 20  1  0  0  0
 20 21  2  0  0  0
 21 22  1  0  0  0
 22 23  2  0  0  0
 23 24  1  0  0  0
 24 25  2  0  0  0
 20 25  1  0  0  0
 24 26  1  0  0  0
 26 27  2  0  0  0
 27 28  1  0  0  0
 23 28  1  0  0  0
 27 30  1  0  0  0
 30 31  1  0  0  0
 30 32  1  0  0  0
  2  8  1  0  0  0
  9 10  1  0  0  0
 28 29  1  0  0  0
M  END
> <minimizedAffinity>
-10.98881

$$$$
mol_58251999_28


 32 34  0  0  0  0  0  0  0  0999 V2000
   -2.3544   -2.3504  -20.6006 C   0  0  0  0  0  0  0  0  0  0  0  0
   -1.0293   -2.7371  -20.3455 C   0  0  0  0  0  0  0  0  0  0  0  0
    0.0055   -1.7978  -20.2535 C   0  0  0  0  0  0  0  0  0  0  0  0
   -0.3002   -0.4559  -20.4536 C   0  0  0  0  0  0  0  0  0  0  0  0
   -1.6179   -0.0498  -20.6474 C   0  0  0  0  0  0  0  0  0  0  0  0
   -2.6479   -0.9931  -20.6672 C   0  0  0  0  0  0  0  0  0  0  0  0
    0.6481    0.4885  -20.4311 F   0  0  0  0  0  0  0  0  0  0  0  0
   -0.7695   -4.0517  -20.2435 F   0  0  0  0  0  0  0  0  0  0  0  0
   -3.3444   -3.3736  -20.6950 N   0  0  0  0  0  0  0  0  0  0  0  0
   -3.2589   -4.0399  -21.4681 H   0  0  0  0  0  0  0  0  0  0  0  0
   -4.8720   -3.3067  -20.0211 S   0  0  0  0  0  0  0  0  0  0  0  0
   -5.3094   -4.6452  -19.6894 O   0  0  0  0  0  0  0  0  0  0  0  0
   -5.6378   -2.4915  -20.9401 O   0  0  0  0  0  0  0  0  0  0  0  0
   -4.6550   -2.3355  -18.5189 C   0  0  0  0  0  0  0  0  0  0  0  0
   -5.3347   -3.0303  -16.1516 C   0  0  0  0  0  0  0  0  0  0  0  0
   -4.3080   -3.1377  -17.2666 C   0  0  0  0  0  0  0  0  0  0  0  0
    1.3772   -2.2587  -19.9212 C   0  0  0  0  0  0  0  0  0  0  0  0
    1.5552   -2.8450  -18.8537 O   0  0  0  0  0  0  0  0  0  0  0  0
    2.5413   -1.9870  -20.8569 C   0  0  0  0  0  0  0  0  0  0  0  0
    2.8747   -3.0815  -21.8387 C   0  0  0  0  0  0  0  0  0  0  0  0
    4.2150   -3.4195  -22.0530 C   0  0  0  0  0  0  0  0  0  0  0  0
    4.6783   -4.3674  -22.9030 N   0  0  0  0  0  0  0  0  0  0  0  0
    3.6949   -4.9915  -23.5725 C   0  0  0  0  0  0  0  0  0  0  0  0
    2.3286   -4.7824  -23.4504 C   0  0  0  0  0  0  0  0  0  0  0  0
    1.9008   -3.8224  -22.5219 C   0  0  0  0  0  0  0  0  0  0  0  0
    1.6895   -5.6535  -24.3702 C   0  0  0  0  0  0  0  0  0  0  0  0
    2.6758   -6.3632  -25.0312 C   0  0  0  0  0  0  0  0  0  0  0  0
    3.8875   -5.9666  -24.5112 N   0  0  0  0  0  0  0  0  0  0  0  0
    4.7968   -6.3150  -24.7827 H   0  0  0  0  0  0  0  0  0  0  0  0
    2.6032   -7.3811  -26.1028 C   0  0  0  0  0  0  0  0  0  0  0  0
    1.5211   -8.1828  -25.9213 F   0  0  0  0  0  0  0  0  0  0  0  0
    2.4376   -6.7871  -27.3122 F   0  0  0  0  0  0  0  0  0  0  0  0
 15 16  1  0  0  0
 16 14  1  0  0  0
 14 11  1  0  0  0
 11 12  2  0  0  0
 11 13  2  0  0  0
 11  9  1  0  0  0
  9  1  1  0  0  0
  1  2  2  0  0  0
  2  3  1  0  0  0
  3  4  2  0  0  0
  4  5  1  0  0  0
  5  6  2  0  0  0
  1  6  1  0  0  0
  4  7  1  0  0  0
  3 17  1  0  0  0
 17 18  2  0  0  0
 17 19  1  0  0  0
 19 20  1  0  0  0
 20 21  2  0  0  0
 21 22  1  0  0  0
 22 23  2  0  0  0
 23 24  1  0  0  0
 24 25  2  0  0  0
 20 25  1  0  0  0
 24 26  1  0  0  0
 26 27  2  0  0  0
 27 28  1  0  0  0
 23 28  1  0  0  0
 27 30  1  0  0  0
 30 31  1  0  0  0
 30 32  1  0  0  0
  2  8  1  0  0  0
  9 10  1  0  0  0
 28 29  1  0  0  0
M  END
> <minimizedAffinity>
-10.22872

$$$$
mol_58251999_28


 32 34  0  0  0  0  0  0  0  0999 V2000
   -2.5486   -2.3927  -20.7311 C   0  0  0  0  0  0  0  0  0  0  0  0
   -1.2189   -2.8314  -20.6324 C   0  0  0  0  0  0  0  0  0  0  0  0
   -0.1487   -1.9289  -20.5891 C   0  0  0  0  0  0  0  0  0  0  0  0
   -0.4267   -0.5692  -20.6787 C   0  0  0  0  0  0  0  0  0  0  0  0
   -1.7425   -0.1151  -20.7161 C   0  0  0  0  0  0  0  0  0  0  0  0
   -2.8009   -1.0262  -20.6884 C   0  0  0  0  0  0  0  0  0  0  0  0
    0.5508    0.3451  -20.6955 F   0  0  0  0  0  0  0  0  0  0  0  0
   -0.9952   -4.1566  -20.6339 F   0  0  0  0  0  0  0  0  0  0  0  0
   -3.5774   -3.3799  -20.7862 N   0  0  0  0  0  0  0  0  0  0  0  0
   -3.6802   -3.9028  -21.6607 H   0  0  0  0  0  0  0  0  0  0  0  0
   -4.9292   -3.4241  -19.8049 S   0  0  0  0  0  0  0  0  0  0  0  0
   -5.2987   -4.8011  -19.5586 O   0  0  0  0  0  0  0  0  0  0  0  0
   -5.8637   -2.5155  -20.4347 O   0  0  0  0  0  0  0  0  0  0  0  0
   -4.3940   -2.6423  -18.2722 C   0  0  0  0  0  0  0  0  0  0  0  0
   -5.4356   -3.0339  -15.9677 C   0  0  0  0  0  0  0  0  0  0  0  0
   -4.4653   -3.5258  -17.0285 C   0  0  0  0  0  0  0  0  0  0  0  0
    1.2324   -2.4477  -20.4227 C   0  0  0  0  0  0  0  0  0  0  0  0
    1.5235   -3.0094  -19.3669 O   0  0  0  0  0  0  0  0  0  0  0  0
    2.2732   -2.2634  -21.5122 C   0  0  0  0  0  0  0  0  0  0  0  0
    2.7224   -3.5156  -22.2215 C   0  0  0  0  0  0  0  0  0  0  0  0
    1.7613   -4.4329  -22.6591 C   0  0  0  0  0  0  0  0  0  0  0  0
    2.0004   -5.6025  -23.2998 N   0  0  0  0  0  0  0  0  0  0  0  0
    3.3102   -5.8345  -23.4880 C   0  0  0  0  0  0  0  0  0  0  0  0
    4.3706   -5.0132  -23.1325 C   0  0  0  0  0  0  0  0  0  0  0  0
    4.0649   -3.7922  -22.5139 C   0  0  0  0  0  0  0  0  0  0  0  0
    5.5625   -5.6835  -23.5112 C   0  0  0  0  0  0  0  0  0  0  0  0
    5.2023   -6.8924  -24.0787 C   0  0  0  0  0  0  0  0  0  0  0  0
    3.8267   -6.9526  -24.0814 N   0  0  0  0  0  0  0  0  0  0  0  0
    3.2627   -7.7096  -24.4430 H   0  0  0  0  0  0  0  0  0  0  0  0
    6.0145   -8.0026  -24.6240 C   0  0  0  0  0  0  0  0  0  0  0  0
    7.0422   -7.5159  -25.3680 F   0  0  0  0  0  0  0  0  0  0  0  0
    6.5791   -8.7175  -23.6175 F   0  0  0  0  0  0  0  0  0  0  0  0
 15 16  1  0  0  0
 16 14  1  0  0  0
 14 11  1  0  0  0
 11 12  2  0  0  0
 11 13  2  0  0  0
 11  9  1  0  0  0
  9  1  1  0  0  0
  1  2  2  0  0  0
  2  3  1  0  0  0
  3  4  2  0  0  0
  4  5  1  0  0  0
  5  6  2  0  0  0
  1  6  1  0  0  0
  4  7  1  0  0  0
  3 17  1  0  0  0
 17 18  2  0  0  0
 17 19  1  0  0  0
 19 20  1  0  0  0
 20 21  2  0  0  0
 21 22  1  0  0  0
 22 23  2  0  0  0
 23 24  1  0  0  0
 24 25  2  0  0  0
 20 25  1  0  0  0
 24 26  1  0  0  0
 26 27  2  0  0  0
 27 28  1  0  0  0
 23 28  1  0  0  0
 27 30  1  0  0  0
 30 31  1  0  0  0
 30 32  1  0  0  0
  2  8  1  0  0  0
  9 10  1  0  0  0
 28 29  1  0  0  0
M  END
> <minimizedAffinity>
-9.99520

$$$$
mol_58251990_29


 28 30  0  0  0  0  0  0  0  0999 V2000
   -2.5740   -2.1986  -20.7227 C   0  0  0  0  0  0  0  0  0  0  0  0
   -2.6294   -0.8074  -20.6328 C   0  0  0  0  0  0  0  0  0  0  0  0
   -1.4466   -0.0562  -20.7179 C   0  0  0  0  0  0  0  0  0  0  0  0
   -0.2051   -0.6945  -20.7951 C   0  0  0  0  0  0  0  0  0  0  0  0
   -0.1514   -2.0891  -20.8214 C   0  0  0  0  0  0  0  0  0  0  0  0
   -1.3311   -2.8155  -20.9039 C   0  0  0  0  0  0  0  0  0  0  0  0
   -1.2728   -4.1175  -21.2101 F   0  0  0  0  0  0  0  0  0  0  0  0
   -3.7460   -3.0286  -20.6789 N   0  0  0  0  0  0  0  0  0  0  0  0
   -4.5527   -2.5841  -21.1251 H   0  0  0  0  0  0  0  0  0  0  0  0
   -4.2896   -3.6676  -19.2141 S   0  0  0  0  0  0  0  0  0  0  0  0
   -3.1127   -4.1586  -18.5351 O   0  0  0  0  0  0  0  0  0  0  0  0
   -5.3683   -4.5833  -19.5383 O   0  0  0  0  0  0  0  0  0  0  0  0
   -4.9827   -2.3166  -18.2650 C   0  0  0  0  0  0  0  0  0  0  0  0
   -5.6407   -3.0757  -15.9178 C   0  0  0  0  0  0  0  0  0  0  0  0
   -4.6849   -2.2773  -16.7715 C   0  0  0  0  0  0  0  0  0  0  0  0
    1.1516   -2.7652  -20.6198 C   0  0  0  0  0  0  0  0  0  0  0  0
    1.7135   -3.2292  -21.6110 O   0  0  0  0  0  0  0  0  0  0  0  0
    1.7656   -2.8677  -19.2253 C   0  0  0  0  0  0  0  0  0  0  0  0
    3.1923   -2.4012  -18.9727 C   0  0  0  0  0  0  0  0  0  0  0  0
    3.6343   -1.7399  -17.8276 C   0  0  0  0  0  0  0  0  0  0  0  0
    4.9213   -1.5051  -17.4614 N   0  0  0  0  0  0  0  0  0  0  0  0
    5.8116   -1.9324  -18.3691 C   0  0  0  0  0  0  0  0  0  0  0  0
    5.5408   -2.5193  -19.5964 C   0  0  0  0  0  0  0  0  0  0  0  0
    4.1878   -2.7637  -19.9043 C   0  0  0  0  0  0  0  0  0  0  0  0
    6.7967   -2.7344  -20.2289 C   0  0  0  0  0  0  0  0  0  0  0  0
    7.7842   -2.3427  -19.3466 C   0  0  0  0  0  0  0  0  0  0  0  0
    7.1695   -1.8719  -18.2142 N   0  0  0  0  0  0  0  0  0  0  0  0
    7.6257   -1.5301  -17.3807 H   0  0  0  0  0  0  0  0  0  0  0  0
 14 15  1  0  0  0
 15 13  1  0  0  0
 13 10  1  0  0  0
 10 11  2  0  0  0
 10 12  2  0  0  0
 10  8  1  0  0  0
  8  1  1  0  0  0
  1  2  2  0  0  0
  2  3  1  0  0  0
  3  4  2  0  0  0
  4  5  1  0  0  0
  5  6  2  0  0  0
  1  6  1  0  0  0
  6  7  1  0  0  0
  5 16  1  0  0  0
 16 17  2  0  0  0
 16 18  1  0  0  0
 18 19  1  0  0  0
 19 20  2  0  0  0
 20 21  1  0  0  0
 21 22  2  0  0  0
 22 23  1  0  0  0
 23 24  2  0  0  0
 19 24  1  0  0  0
 23 25  1  0  0  0
 25 26  2  0  0  0
 26 27  1  0  0  0
 22 27  1  0  0  0
  8  9  1  0  0  0
 27 28  1  0  0  0
M  END
> <minimizedAffinity>
-10.04529

$$$$
mol_58251990_29


 28 30  0  0  0  0  0  0  0  0999 V2000
   -1.3644   -1.3200  -20.0905 C   0  0  0  0  0  0  0  0  0  0  0  0
   -1.4172    0.0599  -20.2896 C   0  0  0  0  0  0  0  0  0  0  0  0
   -0.2935    0.7348  -20.7921 C   0  0  0  0  0  0  0  0  0  0  0  0
    0.9080    0.0519  -21.0035 C   0  0  0  0  0  0  0  0  0  0  0  0
    0.9733   -1.3179  -20.7429 C   0  0  0  0  0  0  0  0  0  0  0  0
   -0.1850   -2.0040  -20.4059 C   0  0  0  0  0  0  0  0  0  0  0  0
   -0.1788   -3.3425  -20.4323 F   0  0  0  0  0  0  0  0  0  0  0  0
   -2.4856   -2.0809  -19.6129 N   0  0  0  0  0  0  0  0  0  0  0  0
   -2.1982   -2.8654  -19.0216 H   0  0  0  0  0  0  0  0  0  0  0  0
   -3.6370   -2.6802  -20.6922 S   0  0  0  0  0  0  0  0  0  0  0  0
   -3.0163   -3.8082  -21.3476 O   0  0  0  0  0  0  0  0  0  0  0  0
   -4.0909   -1.5496  -21.4813 O   0  0  0  0  0  0  0  0  0  0  0  0
   -5.0245   -3.2665  -19.7238 C   0  0  0  0  0  0  0  0  0  0  0  0
   -4.8824   -3.1944  -17.1757 C   0  0  0  0  0  0  0  0  0  0  0  0
   -4.7183   -4.0147  -18.4326 C   0  0  0  0  0  0  0  0  0  0  0  0
    2.2976   -1.9810  -20.6945 C   0  0  0  0  0  0  0  0  0  0  0  0
    2.5180   -2.8761  -21.5092 O   0  0  0  0  0  0  0  0  0  0  0  0
    3.3438   -1.5519  -19.6682 C   0  0  0  0  0  0  0  0  0  0  0  0
    4.7679   -2.0836  -19.7474 C   0  0  0  0  0  0  0  0  0  0  0  0
    5.7673   -1.5922  -20.5862 C   0  0  0  0  0  0  0  0  0  0  0  0
    7.0942   -1.8788  -20.5362 N   0  0  0  0  0  0  0  0  0  0  0  0
    7.4015   -2.7797  -19.5911 C   0  0  0  0  0  0  0  0  0  0  0  0
    6.5227   -3.4352  -18.7414 C   0  0  0  0  0  0  0  0  0  0  0  0
    5.1639   -3.0715  -18.8213 C   0  0  0  0  0  0  0  0  0  0  0  0
    7.3038   -4.3388  -17.9688 C   0  0  0  0  0  0  0  0  0  0  0  0
    8.6272   -4.1551  -18.3179 C   0  0  0  0  0  0  0  0  0  0  0  0
    8.6715   -3.1925  -19.2944 N   0  0  0  0  0  0  0  0  0  0  0  0
    9.5003   -2.8263  -19.7400 H   0  0  0  0  0  0  0  0  0  0  0  0
 14 15  1  0  0  0
 15 13  1  0  0  0
 13 10  1  0  0  0
 10 11  2  0  0  0
 10 12  2  0  0  0
 10  8  1  0  0  0
  8  1  1  0  0  0
  1  2  2  0  0  0
  2  3  1  0  0  0
  3  4  2  0  0  0
  4  5  1  0  0  0
  5  6  2  0  0  0
  1  6  1  0  0  0
  6  7  1  0  0  0
  5 16  1  0  0  0
 16 17  2  0  0  0
 16 18  1  0  0  0
 18 19  1  0  0  0
 19 20  2  0  0  0
 20 21  1  0  0  0
 21 22  2  0  0  0
 22 23  1  0  0  0
 23 24  2  0  0  0
 19 24  1  0  0  0
 23 25  1  0  0  0
 25 26  2  0  0  0
 26 27  1  0  0  0
 22 27  1  0  0  0
  8  9  1  0  0  0
 27 28  1  0  0  0
M  END
> <minimizedAffinity>
-9.17632

$$$$
mol_58251990_29


 28 30  0  0  0  0  0  0  0  0999 V2000
   -2.3965   -2.1793  -20.6808 C   0  0  0  0  0  0  0  0  0  0  0  0
   -2.5025   -0.7881  -20.6752 C   0  0  0  0  0  0  0  0  0  0  0  0
   -1.3404   -0.0010  -20.6510 C   0  0  0  0  0  0  0  0  0  0  0  0
   -0.0817   -0.5984  -20.5350 C   0  0  0  0  0  0  0  0  0  0  0  0
    0.0146   -1.9897  -20.4777 C   0  0  0  0  0  0  0  0  0  0  0  0
   -1.1236   -2.7605  -20.6689 C   0  0  0  0  0  0  0  0  0  0  0  0
   -0.9895   -4.0735  -20.8932 F   0  0  0  0  0  0  0  0  0  0  0  0
   -3.5403   -3.0467  -20.7403 N   0  0  0  0  0  0  0  0  0  0  0  0
   -4.2973   -2.6520  -21.3050 H   0  0  0  0  0  0  0  0  0  0  0  0
   -4.2447   -3.6350  -19.3235 S   0  0  0  0  0  0  0  0  0  0  0  0
   -3.1524   -4.1089  -18.5053 O   0  0  0  0  0  0  0  0  0  0  0  0
   -5.2893   -4.5558  -19.7334 O   0  0  0  0  0  0  0  0  0  0  0  0
   -5.0256   -2.2505  -18.4990 C   0  0  0  0  0  0  0  0  0  0  0  0
   -5.5096   -3.0086  -16.1095 C   0  0  0  0  0  0  0  0  0  0  0  0
   -4.7492   -2.0669  -17.0121 C   0  0  0  0  0  0  0  0  0  0  0  0
    1.2996   -2.6084  -20.0757 C   0  0  0  0  0  0  0  0  0  0  0  0
    1.3218   -3.2465  -19.0241 O   0  0  0  0  0  0  0  0  0  0  0  0
    2.5419   -2.4562  -20.9506 C   0  0  0  0  0  0  0  0  0  0  0  0
    2.7239   -3.3186  -22.1916 C   0  0  0  0  0  0  0  0  0  0  0  0
    1.7193   -4.0573  -22.8154 C   0  0  0  0  0  0  0  0  0  0  0  0
    1.7771   -4.6548  -24.0340 N   0  0  0  0  0  0  0  0  0  0  0  0
    2.9752   -4.5290  -24.6240 C   0  0  0  0  0  0  0  0  0  0  0  0
    4.1045   -3.9138  -24.1042 C   0  0  0  0  0  0  0  0  0  0  0  0
    3.9714   -3.2864  -22.8497 C   0  0  0  0  0  0  0  0  0  0  0  0
    5.1410   -4.0932  -25.0618 C   0  0  0  0  0  0  0  0  0  0  0  0
    4.5973   -4.7412  -26.1534 C   0  0  0  0  0  0  0  0  0  0  0  0
    3.2757   -4.9854  -25.8781 N   0  0  0  0  0  0  0  0  0  0  0  0
    2.6066   -5.4296  -26.4902 H   0  0  0  0  0  0  0  0  0  0  0  0
 14 15  1  0  0  0
 15 13  1  0  0  0
 13 10  1  0  0  0
 10 11  2  0  0  0
 10 12  2  0  0  0
 10  8  1  0  0  0
  8  1  1  0  0  0
  1  2  2  0  0  0
  2  3  1  0  0  0
  3  4  2  0  0  0
  4  5  1  0  0  0
  5  6  2  0  0  0
  1  6  1  0  0  0
  6  7  1  0  0  0
  5 16  1  0  0  0
 16 17  2  0  0  0
 16 18  1  0  0  0
 18 19  1  0  0  0
 19 20  2  0  0  0
 20 21  1  0  0  0
 21 22  2  0  0  0
 22 23  1  0  0  0
 23 24  2  0  0  0
 19 24  1  0  0  0
 23 25  1  0  0  0
 25 26  2  0  0  0
 26 27  1  0  0  0
 22 27  1  0  0  0
  8  9  1  0  0  0
 27 28  1  0  0  0
M  END
> <minimizedAffinity>
-9.14242

$$$$
mol_58251952_30


 29 31  0  0  0  0  0  0  0  0999 V2000
   -2.4583   -2.3602  -20.7326 C   0  0  0  0  0  0  0  0  0  0  0  0
   -1.1114   -2.7579  -20.6636 C   0  0  0  0  0  0  0  0  0  0  0  0
   -0.0680   -1.8207  -20.6350 C   0  0  0  0  0  0  0  0  0  0  0  0
   -0.4004   -0.4700  -20.7091 C   0  0  0  0  0  0  0  0  0  0  0  0
   -1.7306   -0.0596  -20.7343 C   0  0  0  0  0  0  0  0  0  0  0  0
   -2.7561   -1.0030  -20.6956 C   0  0  0  0  0  0  0  0  0  0  0  0
    0.5345    0.4874  -20.7073 F   0  0  0  0  0  0  0  0  0  0  0  0
   -0.8505   -4.0762  -20.6515 F   0  0  0  0  0  0  0  0  0  0  0  0
   -3.4698   -3.3668  -20.7499 N   0  0  0  0  0  0  0  0  0  0  0  0
   -3.5396   -3.9580  -21.5824 H   0  0  0  0  0  0  0  0  0  0  0  0
   -4.8398   -3.3582  -19.7900 S   0  0  0  0  0  0  0  0  0  0  0  0
   -5.3044   -4.7129  -19.6064 O   0  0  0  0  0  0  0  0  0  0  0  0
   -5.7035   -2.3659  -20.4021 O   0  0  0  0  0  0  0  0  0  0  0  0
   -4.2866   -2.6735  -18.2166 C   0  0  0  0  0  0  0  0  0  0  0  0
   -5.4826   -3.0261  -15.9798 C   0  0  0  0  0  0  0  0  0  0  0  0
   -4.5031   -3.5759  -17.0028 C   0  0  0  0  0  0  0  0  0  0  0  0
    1.3358   -2.2844  -20.4601 C   0  0  0  0  0  0  0  0  0  0  0  0
    2.0810   -2.3121  -21.4396 O   0  0  0  0  0  0  0  0  0  0  0  0
    1.8504   -2.7291  -19.0997 C   0  0  0  0  0  0  0  0  0  0  0  0
    3.3159   -2.4529  -18.9094 C   0  0  0  0  0  0  0  0  0  0  0  0
    3.7562   -1.6481  -17.8556 C   0  0  0  0  0  0  0  0  0  0  0  0
    5.0451   -1.3880  -17.5404 N   0  0  0  0  0  0  0  0  0  0  0  0
    5.9163   -1.9786  -18.3765 C   0  0  0  0  0  0  0  0  0  0  0  0
    5.6275   -2.7665  -19.4841 C   0  0  0  0  0  0  0  0  0  0  0  0
    4.2743   -3.0003  -19.7736 C   0  0  0  0  0  0  0  0  0  0  0  0
    6.8724   -3.1573  -20.0472 C   0  0  0  0  0  0  0  0  0  0  0  0
    7.8722   -2.6243  -19.2595 C   0  0  0  0  0  0  0  0  0  0  0  0
    7.2763   -1.9006  -18.2578 N   0  0  0  0  0  0  0  0  0  0  0  0
    7.7429   -1.3896  -17.5230 H   0  0  0  0  0  0  0  0  0  0  0  0
 15 16  1  0  0  0
 16 14  1  0  0  0
 14 11  1  0  0  0
 11 12  2  0  0  0
 11 13  2  0  0  0
 11  9  1  0  0  0
  9  1  1  0  0  0
  1  2  2  0  0  0
  2  3  1  0  0  0
  3  4  2  0  0  0
  4  5  1  0  0  0
  5  6  2  0  0  0
  1  6  1  0  0  0
  4  7  1  0  0  0
  3 17  1  0  0  0
 17 18  2  0  0  0
 17 19  1  0  0  0
 19 20  1  0  0  0
 20 21  2  0  0  0
 21 22  1  0  0  0
 22 23  2  0  0  0
 23 24  1  0  0  0
 24 25  2  0  0  0
 20 25  1  0  0  0
 24 26  1  0  0  0
 26 27  2  0  0  0
 27 28  1  0  0  0
 23 28  1  0  0  0
  2  8  1  0  0  0
  9 10  1  0  0  0
 28 29  1  0  0  0
M  END
> <minimizedAffinity>
-10.55750

$$$$
mol_58251952_30


 29 31  0  0  0  0  0  0  0  0999 V2000
   -2.2645   -2.2205  -20.7556 C   0  0  0  0  0  0  0  0  0  0  0  0
   -0.9511   -2.6886  -20.5743 C   0  0  0  0  0  0  0  0  0  0  0  0
    0.1330   -1.8075  -20.4464 C   0  0  0  0  0  0  0  0  0  0  0  0
   -0.1213   -0.4409  -20.5356 C   0  0  0  0  0  0  0  0  0  0  0  0
   -1.4213    0.0388  -20.6717 C   0  0  0  0  0  0  0  0  0  0  0  0
   -2.4937   -0.8498  -20.7311 C   0  0  0  0  0  0  0  0  0  0  0  0
    0.8581    0.4662  -20.4437 F   0  0  0  0  0  0  0  0  0  0  0  0
   -0.7608   -4.0188  -20.5527 F   0  0  0  0  0  0  0  0  0  0  0  0
   -3.3214   -3.1726  -20.8702 N   0  0  0  0  0  0  0  0  0  0  0  0
   -3.5398   -3.5323  -21.8031 H   0  0  0  0  0  0  0  0  0  0  0  0
   -4.5401   -3.3842  -19.7439 S   0  0  0  0  0  0  0  0  0  0  0  0
   -5.2949   -4.5704  -20.0724 O   0  0  0  0  0  0  0  0  0  0  0  0
   -5.1992   -2.0933  -19.6779 O   0  0  0  0  0  0  0  0  0  0  0  0
   -3.6757   -3.6128  -18.1782 C   0  0  0  0  0  0  0  0  0  0  0  0
   -4.7750   -2.3919  -16.2138 C   0  0  0  0  0  0  0  0  0  0  0  0
   -4.5753   -3.7076  -16.9468 C   0  0  0  0  0  0  0  0  0  0  0  0
    1.4904   -2.3452  -20.1554 C   0  0  0  0  0  0  0  0  0  0  0  0
    1.6506   -3.0540  -19.1617 O   0  0  0  0  0  0  0  0  0  0  0  0
    2.6710   -2.0228  -21.0584 C   0  0  0  0  0  0  0  0  0  0  0  0
    3.0438   -3.1632  -21.9642 C   0  0  0  0  0  0  0  0  0  0  0  0
    4.3853   -3.4764  -22.1969 C   0  0  0  0  0  0  0  0  0  0  0  0
    4.8419   -4.5174  -22.9292 N   0  0  0  0  0  0  0  0  0  0  0  0
    3.8522   -5.2549  -23.4616 C   0  0  0  0  0  0  0  0  0  0  0  0
    2.4834   -5.0422  -23.3525 C   0  0  0  0  0  0  0  0  0  0  0  0
    2.0606   -3.9438  -22.5880 C   0  0  0  0  0  0  0  0  0  0  0  0
    1.8459   -6.0795  -24.0853 C   0  0  0  0  0  0  0  0  0  0  0  0
    2.8331   -6.9001  -24.5915 C   0  0  0  0  0  0  0  0  0  0  0  0
    4.0453   -6.3790  -24.2158 N   0  0  0  0  0  0  0  0  0  0  0  0
    4.9569   -6.7529  -24.4350 H   0  0  0  0  0  0  0  0  0  0  0  0
 15 16  1  0  0  0
 16 14  1  0  0  0
 14 11  1  0  0  0
 11 12  2  0  0  0
 11 13  2  0  0  0
 11  9  1  0  0  0
  9  1  1  0  0  0
  1  2  2  0  0  0
  2  3  1  0  0  0
  3  4  2  0  0  0
  4  5  1  0  0  0
  5  6  2  0  0  0
  1  6  1  0  0  0
  4  7  1  0  0  0
  3 17  1  0  0  0
 17 18  2  0  0  0
 17 19  1  0  0  0
 19 20  1  0  0  0
 20 21  2  0  0  0
 21 22  1  0  0  0
 22 23  2  0  0  0
 23 24  1  0  0  0
 24 25  2  0  0  0
 20 25  1  0  0  0
 24 26  1  0  0  0
 26 27  2  0  0  0
 27 28  1  0  0  0
 23 28  1  0  0  0
  2  8  1  0  0  0
  9 10  1  0  0  0
 28 29  1  0  0  0
M  END
> <minimizedAffinity>
-9.73880

$$$$
mol_58251952_30


 29 31  0  0  0  0  0  0  0  0999 V2000
   -2.2729   -2.3434  -20.6754 C   0  0  0  0  0  0  0  0  0  0  0  0
   -0.9542   -2.8208  -20.5738 C   0  0  0  0  0  0  0  0  0  0  0  0
    0.1434   -1.9481  -20.5360 C   0  0  0  0  0  0  0  0  0  0  0  0
   -0.1048   -0.5809  -20.6343 C   0  0  0  0  0  0  0  0  0  0  0  0
   -1.4068   -0.0912  -20.6920 C   0  0  0  0  0  0  0  0  0  0  0  0
   -2.4883   -0.9703  -20.6621 C   0  0  0  0  0  0  0  0  0  0  0  0
    0.8863    0.3181  -20.6258 F   0  0  0  0  0  0  0  0  0  0  0  0
   -0.7742   -4.1522  -20.5394 F   0  0  0  0  0  0  0  0  0  0  0  0
   -3.3431   -3.2871  -20.7004 N   0  0  0  0  0  0  0  0  0  0  0  0
   -3.4691   -3.8424  -21.5508 H   0  0  0  0  0  0  0  0  0  0  0  0
   -4.6857   -3.2324  -19.7041 S   0  0  0  0  0  0  0  0  0  0  0  0
   -4.3168   -2.6507  -18.4351 O   0  0  0  0  0  0  0  0  0  0  0  0
   -5.2330   -4.5749  -19.7611 O   0  0  0  0  0  0  0  0  0  0  0  0
   -5.8465   -2.1554  -20.5662 C   0  0  0  0  0  0  0  0  0  0  0  0
   -7.0001   -2.0812  -22.8513 C   0  0  0  0  0  0  0  0  0  0  0  0
   -5.6884   -2.1126  -22.0853 C   0  0  0  0  0  0  0  0  0  0  0  0
    1.5128   -2.4934  -20.3265 C   0  0  0  0  0  0  0  0  0  0  0  0
    1.9861   -3.2562  -21.1688 O   0  0  0  0  0  0  0  0  0  0  0  0
    2.3205   -2.1292  -19.0903 C   0  0  0  0  0  0  0  0  0  0  0  0
    3.8044   -2.2232  -19.3121 C   0  0  0  0  0  0  0  0  0  0  0  0
    4.4407   -1.3813  -20.2278 C   0  0  0  0  0  0  0  0  0  0  0  0
    5.7715   -1.3221  -20.4598 N   0  0  0  0  0  0  0  0  0  0  0  0
    6.4703   -2.1973  -19.7165 C   0  0  0  0  0  0  0  0  0  0  0  0
    5.9747   -3.1190  -18.8023 C   0  0  0  0  0  0  0  0  0  0  0  0
    4.5857   -3.1463  -18.6031 C   0  0  0  0  0  0  0  0  0  0  0  0
    7.0938   -3.8173  -18.2738 C   0  0  0  0  0  0  0  0  0  0  0  0
    8.2281   -3.2884  -18.8551 C   0  0  0  0  0  0  0  0  0  0  0  0
    7.8324   -2.3157  -19.7381 N   0  0  0  0  0  0  0  0  0  0  0  0
    8.4318   -1.7477  -20.3184 H   0  0  0  0  0  0  0  0  0  0  0  0
 15 16  1  0  0  0
 16 14  1  0  0  0
 14 11  1  0  0  0
 11 12  2  0  0  0
 11 13  2  0  0  0
 11  9  1  0  0  0
  9  1  1  0  0  0
  1  2  2  0  0  0
  2  3  1  0  0  0
  3  4  2  0  0  0
  4  5  1  0  0  0
  5  6  2  0  0  0
  1  6  1  0  0  0
  4  7  1  0  0  0
  3 17  1  0  0  0
 17 18  2  0  0  0
 17 19  1  0  0  0
 19 20  1  0  0  0
 20 21  2  0  0  0
 21 22  1  0  0  0
 22 23  2  0  0  0
 23 24  1  0  0  0
 24 25  2  0  0  0
 20 25  1  0  0  0
 24 26  1  0  0  0
 26 27  2  0  0  0
 27 28  1  0  0  0
 23 28  1  0  0  0
  2  8  1  0  0  0
  9 10  1  0  0  0
 28 29  1  0  0  0
M  END
> <minimizedAffinity>
-9.72408

$$$$
mol_58251946_31


 31 33  0  0  0  0  0  0  0  0999 V2000
   -2.5431   -2.3752  -20.6724 C   0  0  0  0  0  0  0  0  0  0  0  0
   -1.2083   -2.7951  -20.5592 C   0  0  0  0  0  0  0  0  0  0  0  0
   -0.1468   -1.8810  -20.5897 C   0  0  0  0  0  0  0  0  0  0  0  0
   -0.4416   -0.5321  -20.7545 C   0  0  0  0  0  0  0  0  0  0  0  0
   -1.7637   -0.0934  -20.7843 C   0  0  0  0  0  0  0  0  0  0  0  0
   -2.8128   -1.0127  -20.6910 C   0  0  0  0  0  0  0  0  0  0  0  0
    0.5270    0.3832  -20.8791 F   0  0  0  0  0  0  0  0  0  0  0  0
   -0.9684   -4.1159  -20.5011 F   0  0  0  0  0  0  0  0  0  0  0  0
   -3.5588   -3.3716  -20.7292 N   0  0  0  0  0  0  0  0  0  0  0  0
   -3.5148   -4.0595  -21.4855 H   0  0  0  0  0  0  0  0  0  0  0  0
   -4.9918   -3.3681  -19.8780 S   0  0  0  0  0  0  0  0  0  0  0  0
   -5.3436   -4.7299  -19.5455 O   0  0  0  0  0  0  0  0  0  0  0  0
   -5.8803   -2.5604  -20.6906 O   0  0  0  0  0  0  0  0  0  0  0  0
   -4.6725   -2.4270  -18.3686 C   0  0  0  0  0  0  0  0  0  0  0  0
   -5.4988   -3.0634  -16.0312 C   0  0  0  0  0  0  0  0  0  0  0  0
   -4.4526   -3.2688  -17.1110 C   0  0  0  0  0  0  0  0  0  0  0  0
    1.2473   -2.3851  -20.4934 C   0  0  0  0  0  0  0  0  0  0  0  0
    1.9066   -2.4693  -21.5295 O   0  0  0  0  0  0  0  0  0  0  0  0
    1.8370   -2.8152  -19.1585 C   0  0  0  0  0  0  0  0  0  0  0  0
    3.3045   -2.5393  -18.9356 C   0  0  0  0  0  0  0  0  0  0  0  0
    3.7204   -1.9420  -17.7386 C   0  0  0  0  0  0  0  0  0  0  0  0
    4.9962   -1.6277  -17.3877 N   0  0  0  0  0  0  0  0  0  0  0  0
    5.8903   -1.9439  -18.3420 C   0  0  0  0  0  0  0  0  0  0  0  0
    5.6250   -2.5272  -19.5718 C   0  0  0  0  0  0  0  0  0  0  0  0
    4.2989   -2.8614  -19.8626 C   0  0  0  0  0  0  0  0  0  0  0  0
    6.8563   -2.6727  -20.2498 C   0  0  0  0  0  0  0  0  0  0  0  0
    7.8481   -2.2667  -19.3855 C   0  0  0  0  0  0  0  0  0  0  0  0
    7.2488   -1.7775  -18.2508 N   0  0  0  0  0  0  0  0  0  0  0  0
    7.7182   -1.4112  -17.4364 H   0  0  0  0  0  0  0  0  0  0  0  0
    9.2436   -2.4037  -19.6018 C   0  0  0  0  0  0  0  0  0  0  0  0
   10.4300   -2.3913  -19.7682 C   0  0  0  0  0  0  0  0  0  0  0  0
 15 16  1  0  0  0
 16 14  1  0  0  0
 14 11  1  0  0  0
 11 12  2  0  0  0
 11 13  2  0  0  0
 11  9  1  0  0  0
  9  1  1  0  0  0
  1  2  2  0  0  0
  2  3  1  0  0  0
  3  4  2  0  0  0
  4  5  1  0  0  0
  5  6  2  0  0  0
  1  6  1  0  0  0
  4  7  1  0  0  0
  3 17  1  0  0  0
 17 18  2  0  0  0
 17 19  1  0  0  0
 19 20  1  0  0  0
 20 21  2  0  0  0
 21 22  1  0  0  0
 22 23  2  0  0  0
 23 24  1  0  0  0
 24 25  2  0  0  0
 20 25  1  0  0  0
 24 26  1  0  0  0
 26 27  2  0  0  0
 27 28  1  0  0  0
 23 28  1  0  0  0
 27 30  1  0  0  0
 30 31  3  0  0  0
  2  8  1  0  0  0
  9 10  1  0  0  0
 28 29  1  0  0  0
M  END
> <minimizedAffinity>
-10.71533

$$$$
mol_58251946_31


 31 33  0  0  0  0  0  0  0  0999 V2000
   -2.2836   -2.1900  -20.6359 C   0  0  0  0  0  0  0  0  0  0  0  0
   -0.9872   -2.6121  -20.3012 C   0  0  0  0  0  0  0  0  0  0  0  0
    0.0759   -1.7051  -20.1989 C   0  0  0  0  0  0  0  0  0  0  0  0
   -0.1752   -0.3619  -20.4557 C   0  0  0  0  0  0  0  0  0  0  0  0
   -1.4718    0.0821  -20.7067 C   0  0  0  0  0  0  0  0  0  0  0  0
   -2.5324   -0.8278  -20.7450 C   0  0  0  0  0  0  0  0  0  0  0  0
    0.8108    0.5433  -20.4607 F   0  0  0  0  0  0  0  0  0  0  0  0
   -0.7735   -3.9311  -20.1593 F   0  0  0  0  0  0  0  0  0  0  0  0
   -3.2888   -3.1827  -20.8144 N   0  0  0  0  0  0  0  0  0  0  0  0
   -3.1646   -3.8613  -21.5700 H   0  0  0  0  0  0  0  0  0  0  0  0
   -4.8053   -3.1855  -20.1226 S   0  0  0  0  0  0  0  0  0  0  0  0
   -5.2403   -4.5531  -19.9510 O   0  0  0  0  0  0  0  0  0  0  0  0
   -5.5697   -2.2728  -20.9501 O   0  0  0  0  0  0  0  0  0  0  0  0
   -4.6191   -2.3901  -18.5107 C   0  0  0  0  0  0  0  0  0  0  0  0
   -5.2426   -3.0084  -16.1064 C   0  0  0  0  0  0  0  0  0  0  0  0
   -4.4157   -3.3448  -17.3335 C   0  0  0  0  0  0  0  0  0  0  0  0
    1.4326   -2.2124  -19.8687 C   0  0  0  0  0  0  0  0  0  0  0  0
    1.5838   -2.8156  -18.8064 O   0  0  0  0  0  0  0  0  0  0  0  0
    2.6108   -1.9690  -20.8000 C   0  0  0  0  0  0  0  0  0  0  0  0
    2.9345   -3.0561  -21.7962 C   0  0  0  0  0  0  0  0  0  0  0  0
    4.2719   -3.3219  -22.1175 C   0  0  0  0  0  0  0  0  0  0  0  0
    4.7269   -4.2598  -22.9909 N   0  0  0  0  0  0  0  0  0  0  0  0
    3.7320   -4.9550  -23.5716 C   0  0  0  0  0  0  0  0  0  0  0  0
    2.3707   -4.7968  -23.3591 C   0  0  0  0  0  0  0  0  0  0  0  0
    1.9636   -3.8416  -22.4226 C   0  0  0  0  0  0  0  0  0  0  0  0
    1.6992   -5.7309  -24.1795 C   0  0  0  0  0  0  0  0  0  0  0  0
    2.6618   -6.4975  -24.7969 C   0  0  0  0  0  0  0  0  0  0  0  0
    3.8915   -5.9855  -24.4627 N   0  0  0  0  0  0  0  0  0  0  0  0
    4.7881   -6.3394  -24.7602 H   0  0  0  0  0  0  0  0  0  0  0  0
    2.4229   -7.6581  -25.5772 C   0  0  0  0  0  0  0  0  0  0  0  0
    2.1094   -8.5831  -26.2711 C   0  0  0  0  0  0  0  0  0  0  0  0
 15 16  1  0  0  0
 16 14  1  0  0  0
 14 11  1  0  0  0
 11 12  2  0  0  0
 11 13  2  0  0  0
 11  9  1  0  0  0
  9  1  1  0  0  0
  1  2  2  0  0  0
  2  3  1  0  0  0
  3  4  2  0  0  0
  4  5  1  0  0  0
  5  6  2  0  0  0
  1  6  1  0  0  0
  4  7  1  0  0  0
  3 17  1  0  0  0
 17 18  2  0  0  0
 17 19  1  0  0  0
 19 20  1  0  0  0
 20 21  2  0  0  0
 21 22  1  0  0  0
 22 23  2  0  0  0
 23 24  1  0  0  0
 24 25  2  0  0  0
 20 25  1  0  0  0
 24 26  1  0  0  0
 26 27  2  0  0  0
 27 28  1  0  0  0
 23 28  1  0  0  0
 27 30  1  0  0  0
 30 31  3  0  0  0
  2  8  1  0  0  0
  9 10  1  0  0  0
 28 29  1  0  0  0
M  END
> <minimizedAffinity>
-10.14534

$$$$
mol_58251946_31


 31 33  0  0  0  0  0  0  0  0999 V2000
    2.1613   -2.7920  -19.5668 C   0  0  0  0  0  0  0  0  0  0  0  0
    3.2273   -2.6452  -20.4682 C   0  0  0  0  0  0  0  0  0  0  0  0
    4.5493   -2.5074  -20.0246 C   0  0  0  0  0  0  0  0  0  0  0  0
    4.7887   -2.5006  -18.6549 C   0  0  0  0  0  0  0  0  0  0  0  0
    3.7520   -2.7288  -17.7524 C   0  0  0  0  0  0  0  0  0  0  0  0
    2.4473   -2.9258  -18.2140 C   0  0  0  0  0  0  0  0  0  0  0  0
    6.0147   -2.2862  -18.1623 F   0  0  0  0  0  0  0  0  0  0  0  0
    2.9355   -2.5585  -21.7770 F   0  0  0  0  0  0  0  0  0  0  0  0
    0.8379   -2.8299  -20.0910 N   0  0  0  0  0  0  0  0  0  0  0  0
    0.4943   -3.7187  -20.4637 H   0  0  0  0  0  0  0  0  0  0  0  0
   -0.1194   -1.5127  -20.4472 S   0  0  0  0  0  0  0  0  0  0  0  0
    0.1149   -1.1191  -21.8179 O   0  0  0  0  0  0  0  0  0  0  0  0
    0.1437   -0.5851  -19.3643 O   0  0  0  0  0  0  0  0  0  0  0  0
   -1.8271   -2.0694  -20.2480 C   0  0  0  0  0  0  0  0  0  0  0  0
   -4.2249   -1.8414  -21.1141 C   0  0  0  0  0  0  0  0  0  0  0  0
   -2.8843   -1.1678  -20.8868 C   0  0  0  0  0  0  0  0  0  0  0  0
    5.6342   -2.3272  -21.0233 C   0  0  0  0  0  0  0  0  0  0  0  0
    6.0701   -1.1909  -21.2078 O   0  0  0  0  0  0  0  0  0  0  0  0
    6.1732   -3.5063  -21.8196 C   0  0  0  0  0  0  0  0  0  0  0  0
    5.4322   -3.8788  -23.0811 C   0  0  0  0  0  0  0  0  0  0  0  0
    5.3094   -2.9387  -24.1124 C   0  0  0  0  0  0  0  0  0  0  0  0
    4.6753   -3.1161  -25.3024 N   0  0  0  0  0  0  0  0  0  0  0  0
    4.1282   -4.3394  -25.4222 C   0  0  0  0  0  0  0  0  0  0  0  0
    4.1617   -5.3623  -24.4864 C   0  0  0  0  0  0  0  0  0  0  0  0
    4.8594   -5.1348  -23.2963 C   0  0  0  0  0  0  0  0  0  0  0  0
    3.4583   -6.4610  -25.0296 C   0  0  0  0  0  0  0  0  0  0  0  0
    3.0974   -6.1196  -26.3136 C   0  0  0  0  0  0  0  0  0  0  0  0
    3.4621   -4.8124  -26.5241 N   0  0  0  0  0  0  0  0  0  0  0  0
    3.3317   -4.2840  -27.3734 H   0  0  0  0  0  0  0  0  0  0  0  0
    2.5209   -6.9920  -27.2725 C   0  0  0  0  0  0  0  0  0  0  0  0
    1.9621   -7.7760  -27.9856 C   0  0  0  0  0  0  0  0  0  0  0  0
 15 16  1  0  0  0
 16 14  1  0  0  0
 14 11  1  0  0  0
 11 12  2  0  0  0
 11 13  2  0  0  0
 11  9  1  0  0  0
  9  1  1  0  0  0
  1  2  2  0  0  0
  2  3  1  0  0  0
  3  4  2  0  0  0
  4  5  1  0  0  0
  5  6  2  0  0  0
  1  6  1  0  0  0
  4  7  1  0  0  0
  3 17  1  0  0  0
 17 18  2  0  0  0
 17 19  1  0  0  0
 19 20  1  0  0  0
 20 21  2  0  0  0
 21 22  1  0  0  0
 22 23  2  0  0  0
 23 24  1  0  0  0
 24 25  2  0  0  0
 20 25  1  0  0  0
 24 26  1  0  0  0
 26 27  2  0  0  0
 27 28  1  0  0  0
 23 28  1  0  0  0
 27 30  1  0  0  0
 30 31  3  0  0  0
  2  8  1  0  0  0
  9 10  1  0  0  0
 28 29  1  0  0  0
M  END
> <minimizedAffinity>
-9.62419

$$$$
mol_58252001_32


 33 36  0  0  0  0  0  0  0  0999 V2000
    1.1650   -2.3132  -20.2074 C   0  0  0  0  0  0  0  0  0  0  0  0
    1.7988   -2.7510  -21.1679 O   0  0  0  0  0  0  0  0  0  0  0  0
   -2.5929   -2.3163  -20.7139 C   0  0  0  0  0  0  0  0  0  0  0  0
   -1.2696   -2.7301  -20.4989 C   0  0  0  0  0  0  0  0  0  0  0  0
   -0.2126   -1.8130  -20.4448 C   0  0  0  0  0  0  0  0  0  0  0  0
   -0.5003   -0.4640  -20.6293 C   0  0  0  0  0  0  0  0  0  0  0  0
   -1.8155   -0.0313  -20.7832 C   0  0  0  0  0  0  0  0  0  0  0  0
   -2.8641   -0.9540  -20.7769 C   0  0  0  0  0  0  0  0  0  0  0  0
    0.4653    0.4624  -20.6458 F   0  0  0  0  0  0  0  0  0  0  0  0
   -1.0363   -4.0505  -20.4103 F   0  0  0  0  0  0  0  0  0  0  0  0
   -3.6040   -3.3210  -20.7848 N   0  0  0  0  0  0  0  0  0  0  0  0
   -3.7232   -3.7980  -21.6834 H   0  0  0  0  0  0  0  0  0  0  0  0
   -4.9627   -3.3755  -19.8111 S   0  0  0  0  0  0  0  0  0  0  0  0
   -5.3036   -4.7571  -19.5502 O   0  0  0  0  0  0  0  0  0  0  0  0
   -5.9111   -2.4946  -20.4588 O   0  0  0  0  0  0  0  0  0  0  0  0
   -4.4519   -2.5660  -18.2833 C   0  0  0  0  0  0  0  0  0  0  0  0
   -5.4913   -3.0612  -15.9995 C   0  0  0  0  0  0  0  0  0  0  0  0
   -4.4644   -3.4617  -17.0464 C   0  0  0  0  0  0  0  0  0  0  0  0
    1.7669   -2.3281  -18.8150 C   0  0  0  0  0  0  0  0  0  0  0  0
    3.2713   -2.2848  -18.7043 C   0  0  0  0  0  0  0  0  0  0  0  0
    4.1502   -2.9717  -19.5503 C   0  0  0  0  0  0  0  0  0  0  0  0
    5.5350   -2.8005  -19.3750 C   0  0  0  0  0  0  0  0  0  0  0  0
    5.9415   -1.9972  -18.3194 C   0  0  0  0  0  0  0  0  0  0  0  0
    7.3062   -2.0100  -18.2867 N   0  0  0  0  0  0  0  0  0  0  0  0
    7.7878   -2.7817  -19.3126 C   0  0  0  0  0  0  0  0  0  0  0  0
    6.7134   -3.2505  -20.0518 C   0  0  0  0  0  0  0  0  0  0  0  0
    5.1631   -1.3184  -17.4602 N   0  0  0  0  0  0  0  0  0  0  0  0
    3.8414   -1.4854  -17.7069 C   0  0  0  0  0  0  0  0  0  0  0  0
    7.8535   -1.5107  -17.6017 H   0  0  0  0  0  0  0  0  0  0  0  0
    6.7669   -4.0651  -21.3088 C   0  0  0  0  0  0  0  0  0  0  0  0
    5.9918   -3.5816  -22.5103 C   0  0  0  0  0  0  0  0  0  0  0  0
    5.9864   -4.2795  -23.8512 C   0  0  0  0  0  0  0  0  0  0  0  0
    4.7542   -4.2985  -22.9885 C   0  0  0  0  0  0  0  0  0  0  0  0
 17 18  1  0  0  0
 18 16  1  0  0  0
 16 13  1  0  0  0
 13 14  2  0  0  0
 13 15  2  0  0  0
 13 11  1  0  0  0
 11  3  1  0  0  0
  3  4  2  0  0  0
  4  5  1  0  0  0
  5  6  2  0  0  0
  6  7  1  0  0  0
  7  8  2  0  0  0
  3  8  1  0  0  0
  6  9  1  0  0  0
  5  1  1  0  0  0
  1  2  2  0  0  0
  1 19  1  0  0  0
 19 20  1  0  0  0
 20 21  2  0  0  0
 21 22  1  0  0  0
 22 23  2  0  0  0
 23 24  1  0  0  0
 24 25  1  0  0  0
 25 26  2  0  0  0
 22 26  1  0  0  0
 26 30  1  0  0  0
 30 31  1  0  0  0
 31 32  1  0  0  0
 32 33  1  0  0  0
 31 33  1  0  0  0
 23 27  1  0  0  0
 27 28  2  0  0  0
 20 28  1  0  0  0
  4 10  1  0  0  0
 11 12  1  0  0  0
 24 29  1  0  0  0
M  END
> <minimizedAffinity>
-10.67861

$$$$
mol_58252001_32


 33 36  0  0  0  0  0  0  0  0999 V2000
    4.4362   -4.0123  -23.9263 C   0  0  0  0  0  0  0  0  0  0  0  0
    4.7657   -3.0197  -24.5760 O   0  0  0  0  0  0  0  0  0  0  0  0
    1.3773   -3.4462  -21.7580 C   0  0  0  0  0  0  0  0  0  0  0  0
    2.6842   -3.4088  -22.2673 C   0  0  0  0  0  0  0  0  0  0  0  0
    3.0378   -4.0969  -23.4347 C   0  0  0  0  0  0  0  0  0  0  0  0
    2.0585   -4.8452  -24.0809 C   0  0  0  0  0  0  0  0  0  0  0  0
    0.7431   -4.8435  -23.6223 C   0  0  0  0  0  0  0  0  0  0  0  0
    0.3950   -4.1050  -22.4891 C   0  0  0  0  0  0  0  0  0  0  0  0
    2.3369   -5.5723  -25.1693 F   0  0  0  0  0  0  0  0  0  0  0  0
    3.6099   -2.7399  -21.5592 F   0  0  0  0  0  0  0  0  0  0  0  0
    1.1119   -2.7405  -20.5463 N   0  0  0  0  0  0  0  0  0  0  0  0
    1.1576   -3.2782  -19.6756 H   0  0  0  0  0  0  0  0  0  0  0  0
    0.1749   -1.3598  -20.4337 S   0  0  0  0  0  0  0  0  0  0  0  0
    0.3011   -0.6004  -21.6587 O   0  0  0  0  0  0  0  0  0  0  0  0
    0.5434   -0.7715  -19.1637 O   0  0  0  0  0  0  0  0  0  0  0  0
   -1.5107   -1.9750  -20.2589 C   0  0  0  0  0  0  0  0  0  0  0  0
   -3.9349   -1.7619  -21.0458 C   0  0  0  0  0  0  0  0  0  0  0  0
   -2.5876   -1.0803  -20.8690 C   0  0  0  0  0  0  0  0  0  0  0  0
    5.4266   -5.1340  -23.6764 C   0  0  0  0  0  0  0  0  0  0  0  0
    6.2904   -5.0405  -22.4425 C   0  0  0  0  0  0  0  0  0  0  0  0
    6.2596   -3.9794  -21.5298 C   0  0  0  0  0  0  0  0  0  0  0  0
    7.0773   -4.0421  -20.3873 C   0  0  0  0  0  0  0  0  0  0  0  0
    7.9166   -5.1408  -20.2733 C   0  0  0  0  0  0  0  0  0  0  0  0
    8.6603   -4.9821  -19.1394 N   0  0  0  0  0  0  0  0  0  0  0  0
    8.3004   -3.8197  -18.5074 C   0  0  0  0  0  0  0  0  0  0  0  0
    7.2736   -3.2283  -19.2261 C   0  0  0  0  0  0  0  0  0  0  0  0
    8.0128   -6.1879  -21.1095 N   0  0  0  0  0  0  0  0  0  0  0  0
    7.1695   -6.0938  -22.1657 C   0  0  0  0  0  0  0  0  0  0  0  0
    9.3593   -5.6419  -18.8326 H   0  0  0  0  0  0  0  0  0  0  0  0
    6.5156   -1.9865  -18.8657 C   0  0  0  0  0  0  0  0  0  0  0  0
    5.3332   -2.1123  -17.9361 C   0  0  0  0  0  0  0  0  0  0  0  0
    3.9871   -1.4719  -18.1870 C   0  0  0  0  0  0  0  0  0  0  0  0
    4.1409   -2.9648  -18.2911 C   0  0  0  0  0  0  0  0  0  0  0  0
 17 18  1  0  0  0
 18 16  1  0  0  0
 16 13  1  0  0  0
 13 14  2  0  0  0
 13 15  2  0  0  0
 13 11  1  0  0  0
 11  3  1  0  0  0
  3  4  2  0  0  0
  4  5  1  0  0  0
  5  6  2  0  0  0
  6  7  1  0  0  0
  7  8  2  0  0  0
  3  8  1  0  0  0
  6  9  1  0  0  0
  5  1  1  0  0  0
  1  2  2  0  0  0
  1 19  1  0  0  0
 19 20  1  0  0  0
 20 21  2  0  0  0
 21 22  1  0  0  0
 22 23  2  0  0  0
 23 24  1  0  0  0
 24 25  1  0  0  0
 25 26  2  0  0  0
 22 26  1  0  0  0
 26 30  1  0  0  0
 30 31  1  0  0  0
 31 32  1  0  0  0
 32 33  1  0  0  0
 31 33  1  0  0  0
 23 27  1  0  0  0
 27 28  2  0  0  0
 20 28  1  0  0  0
  4 10  1  0  0  0
 11 12  1  0  0  0
 24 29  1  0  0  0
M  END
> <minimizedAffinity>
-10.20829

$$$$
mol_58252001_32


 33 36  0  0  0  0  0  0  0  0999 V2000
    1.5090   -2.3396  -20.4934 C   0  0  0  0  0  0  0  0  0  0  0  0
    2.1482   -2.4860  -21.5354 O   0  0  0  0  0  0  0  0  0  0  0  0
   -2.2768   -2.2516  -20.6904 C   0  0  0  0  0  0  0  0  0  0  0  0
   -0.9493   -2.6989  -20.6096 C   0  0  0  0  0  0  0  0  0  0  0  0
    0.1275   -1.8038  -20.5868 C   0  0  0  0  0  0  0  0  0  0  0  0
   -0.1460   -0.4416  -20.6655 C   0  0  0  0  0  0  0  0  0  0  0  0
   -1.4600    0.0207  -20.6850 C   0  0  0  0  0  0  0  0  0  0  0  0
   -2.5236   -0.8839  -20.6488 C   0  0  0  0  0  0  0  0  0  0  0  0
    0.8343    0.4686  -20.7048 F   0  0  0  0  0  0  0  0  0  0  0  0
   -0.7372   -4.0258  -20.6203 F   0  0  0  0  0  0  0  0  0  0  0  0
   -3.3110   -3.2338  -20.7390 N   0  0  0  0  0  0  0  0  0  0  0  0
   -3.4335   -3.7366  -21.6230 H   0  0  0  0  0  0  0  0  0  0  0  0
   -4.6793   -3.2246  -19.7773 S   0  0  0  0  0  0  0  0  0  0  0  0
   -4.3637   -2.6017  -18.5102 O   0  0  0  0  0  0  0  0  0  0  0  0
   -5.1675   -4.5863  -19.8249 O   0  0  0  0  0  0  0  0  0  0  0  0
   -5.8600   -2.2106  -20.6873 C   0  0  0  0  0  0  0  0  0  0  0  0
   -6.6745   -2.3574  -23.1072 C   0  0  0  0  0  0  0  0  0  0  0  0
   -5.5318   -2.0130  -22.1656 C   0  0  0  0  0  0  0  0  0  0  0  0
    2.1087   -2.7389  -19.1584 C   0  0  0  0  0  0  0  0  0  0  0  0
    3.5954   -2.5533  -18.9775 C   0  0  0  0  0  0  0  0  0  0  0  0
    4.5724   -3.1044  -19.8151 C   0  0  0  0  0  0  0  0  0  0  0  0
    5.9247   -2.8069  -19.5689 C   0  0  0  0  0  0  0  0  0  0  0  0
    6.2052   -2.0244  -18.4581 C   0  0  0  0  0  0  0  0  0  0  0  0
    7.5618   -1.9042  -18.3640 N   0  0  0  0  0  0  0  0  0  0  0  0
    8.1598   -2.5692  -19.4033 C   0  0  0  0  0  0  0  0  0  0  0  0
    7.1689   -3.1020  -20.2125 C   0  0  0  0  0  0  0  0  0  0  0  0
    5.3282   -1.4721  -17.6032 N   0  0  0  0  0  0  0  0  0  0  0  0
    4.0412   -1.7554  -17.9175 C   0  0  0  0  0  0  0  0  0  0  0  0
    8.0279   -1.3902  -17.6314 H   0  0  0  0  0  0  0  0  0  0  0  0
    7.3549   -3.8397  -21.5038 C   0  0  0  0  0  0  0  0  0  0  0  0
    7.7261   -5.3017  -21.4477 C   0  0  0  0  0  0  0  0  0  0  0  0
    6.9435   -6.4007  -22.1293 C   0  0  0  0  0  0  0  0  0  0  0  0
    8.3022   -6.0134  -22.6461 C   0  0  0  0  0  0  0  0  0  0  0  0
 17 18  1  0  0  0
 18 16  1  0  0  0
 16 13  1  0  0  0
 13 14  2  0  0  0
 13 15  2  0  0  0
 13 11  1  0  0  0
 11  3  1  0  0  0
  3  4  2  0  0  0
  4  5  1  0  0  0
  5  6  2  0  0  0
  6  7  1  0  0  0
  7  8  2  0  0  0
  3  8  1  0  0  0
  6  9  1  0  0  0
  5  1  1  0  0  0
  1  2  2  0  0  0
  1 19  1  0  0  0
 19 20  1  0  0  0
 20 21  2  0  0  0
 21 22  1  0  0  0
 22 23  2  0  0  0
 23 24  1  0  0  0
 24 25  1  0  0  0
 25 26  2  0  0  0
 22 26  1  0  0  0
 26 30  1  0  0  0
 30 31  1  0  0  0
 31 32  1  0  0  0
 32 33  1  0  0  0
 31 33  1  0  0  0
 23 27  1  0  0  0
 27 28  2  0  0  0
 20 28  1  0  0  0
  4 10  1  0  0  0
 11 12  1  0  0  0
 24 29  1  0  0  0
M  END
> <minimizedAffinity>
-10.06585

$$$$
