mol_11531192_0


 31 35  0  0  0  0  0  0  0  0999 V2000
    4.7549   -3.7548  -22.9515 N   0  0  0  0  0  0  0  0  0  0  0  0
    3.4048   -3.9078  -23.1343 C   0  0  0  0  0  0  0  0  0  0  0  0
    2.8115   -3.4206  -21.9913 C   0  0  0  0  0  0  0  0  0  0  0  0
    3.8945   -3.0605  -21.1353 C   0  0  0  0  0  0  0  0  0  0  0  0
    5.0702   -3.2703  -21.7381 N   0  0  0  0  0  0  0  0  0  0  0  0
    1.3866   -3.2547  -21.7803 C   0  0  0  0  0  0  0  0  0  0  0  0
    0.8855   -1.9553  -21.5784 C   0  0  0  0  0  0  0  0  0  0  0  0
   -0.4292   -1.7947  -21.1777 C   0  0  0  0  0  0  0  0  0  0  0  0
   -1.2406   -2.9084  -21.0164 C   0  0  0  0  0  0  0  0  0  0  0  0
   -0.7968   -4.1983  -21.2570 C   0  0  0  0  0  0  0  0  0  0  0  0
    0.5373   -4.3695  -21.6438 C   0  0  0  0  0  0  0  0  0  0  0  0
   -2.5309   -2.4531  -20.5246 C   0  0  0  0  0  0  0  0  0  0  0  0
   -3.5073   -3.2542  -20.2371 N   0  0  0  0  0  0  0  0  0  0  0  0
   -4.6097   -2.5293  -19.7707 O   0  0  0  0  0  0  0  0  0  0  0  0
   -2.5222   -0.9468  -20.3953 C   0  0  0  0  0  0  0  0  0  0  0  0
   -1.1120   -0.5146  -20.8196 C   0  0  0  0  0  0  0  0  0  0  0  0
   -5.2549   -3.2337  -19.5755 H   0  0  0  0  0  0  0  0  0  0  0  0
    4.9377   -6.1528  -25.1139 C   0  0  0  0  0  0  0  0  0  0  0  0
    5.3029   -4.6695  -25.2523 C   0  0  0  0  0  0  0  0  0  0  0  0
    5.8024   -4.0229  -23.9396 C   0  0  0  0  0  0  0  0  0  0  0  0
    6.9354   -4.8714  -23.3456 C   0  0  0  0  0  0  0  0  0  0  0  0
    6.5043   -6.3209  -23.1301 C   0  0  0  0  0  0  0  0  0  0  0  0
    6.0342   -6.9630  -24.4334 C   0  0  0  0  0  0  0  0  0  0  0  0
    7.6035   -7.0594  -22.6032 O   0  0  0  0  0  0  0  0  0  0  0  0
    8.2772   -7.1466  -23.2988 H   0  0  0  0  0  0  0  0  0  0  0  0
    3.8189   -2.4897  -19.7959 C   0  0  0  0  0  0  0  0  0  0  0  0
    2.8679   -2.9584  -18.8908 C   0  0  0  0  0  0  0  0  0  0  0  0
    2.8985   -2.4635  -17.5996 C   0  0  0  0  0  0  0  0  0  0  0  0
    3.7902   -1.5457  -17.1661 N   0  0  0  0  0  0  0  0  0  0  0  0
    4.6840   -1.0906  -18.0700 C   0  0  0  0  0  0  0  0  0  0  0  0
    4.7383   -1.5241  -19.3822 C   0  0  0  0  0  0  0  0  0  0  0  0
 18 19  1  0  0  0
 19 20  1  0  0  0
 20 21  1  0  0  0
 21 22  1  0  0  0
 22 23  1  0  0  0
 18 23  1  0  0  0
 22 24  1  0  0  0
 20  1  1  0  0  0
  1  2  1  0  0  0
  2  3  2  0  0  0
  3  4  1  0  0  0
  4  5  2  0  0  0
  1  5  1  0  0  0
  4 26  1  0  0  0
 26 27  2  0  0  0
 27 28  1  0  0  0
 28 29  2  0  0  0
 29 30  1  0  0  0
 30 31  2  0  0  0
 26 31  1  0  0  0
  3  6  1  0  0  0
  6  7  2  0  0  0
  7  8  1  0  0  0
  8  9  2  0  0  0
  9 10  1  0  0  0
 10 11  2  0  0  0
  6 11  1  0  0  0
  9 12  1  0  0  0
 12 13  2  0  0  0
 13 14  1  0  0  0
 12 15  1  0  0  0
 15 16  1  0  0  0
  8 16  1  0  0  0
 24 25  1  0  0  0
 14 17  1  0  0  0
M  END
> <minimizedAffinity>
-10.73782

$$$$
mol_11531192_0


 31 35  0  0  0  0  0  0  0  0999 V2000
    5.8994   -3.3181  -21.7658 N   0  0  0  0  0  0  0  0  0  0  0  0
    4.7055   -2.7592  -21.3894 C   0  0  0  0  0  0  0  0  0  0  0  0
    3.7386   -3.3982  -22.1329 C   0  0  0  0  0  0  0  0  0  0  0  0
    4.4554   -4.2827  -22.9926 C   0  0  0  0  0  0  0  0  0  0  0  0
    5.7701   -4.2205  -22.7534 N   0  0  0  0  0  0  0  0  0  0  0  0
    2.3061   -3.2320  -21.9828 C   0  0  0  0  0  0  0  0  0  0  0  0
    1.8322   -2.1294  -21.2481 C   0  0  0  0  0  0  0  0  0  0  0  0
    0.4887   -2.0626  -20.9237 C   0  0  0  0  0  0  0  0  0  0  0  0
   -0.3740   -3.0596  -21.3556 C   0  0  0  0  0  0  0  0  0  0  0  0
    0.0473   -4.1318  -22.1249 C   0  0  0  0  0  0  0  0  0  0  0  0
    1.4083   -4.2158  -22.4402 C   0  0  0  0  0  0  0  0  0  0  0  0
   -1.6927   -2.7744  -20.8136 C   0  0  0  0  0  0  0  0  0  0  0  0
   -2.7218   -3.5377  -21.0036 N   0  0  0  0  0  0  0  0  0  0  0  0
   -3.8416   -3.0167  -20.3457 O   0  0  0  0  0  0  0  0  0  0  0  0
   -1.6449   -1.4960  -20.0081 C   0  0  0  0  0  0  0  0  0  0  0  0
   -0.1831   -1.0332  -20.0739 C   0  0  0  0  0  0  0  0  0  0  0  0
   -4.5284   -3.6789  -20.5468 H   0  0  0  0  0  0  0  0  0  0  0  0
    7.4580   -4.9635  -19.4586 C   0  0  0  0  0  0  0  0  0  0  0  0
    7.9950   -4.3090  -20.7376 C   0  0  0  0  0  0  0  0  0  0  0  0
    7.2113   -3.0490  -21.1724 C   0  0  0  0  0  0  0  0  0  0  0  0
    7.1078   -2.0734  -19.9917 C   0  0  0  0  0  0  0  0  0  0  0  0
    6.4782   -2.7324  -18.7659 C   0  0  0  0  0  0  0  0  0  0  0  0
    7.2687   -3.9625  -18.3256 C   0  0  0  0  0  0  0  0  0  0  0  0
    6.4341   -1.7865  -17.7007 O   0  0  0  0  0  0  0  0  0  0  0  0
    7.3435   -1.6195  -17.3998 H   0  0  0  0  0  0  0  0  0  0  0  0
    3.9066   -5.1978  -23.9860 C   0  0  0  0  0  0  0  0  0  0  0  0
    3.5178   -4.7186  -25.2360 C   0  0  0  0  0  0  0  0  0  0  0  0
    3.1005   -5.6355  -26.1838 C   0  0  0  0  0  0  0  0  0  0  0  0
    3.0387   -6.9676  -25.9666 N   0  0  0  0  0  0  0  0  0  0  0  0
    3.3972   -7.4018  -24.7394 C   0  0  0  0  0  0  0  0  0  0  0  0
    3.8314   -6.5673  -23.7256 C   0  0  0  0  0  0  0  0  0  0  0  0
 18 19  1  0  0  0
 19 20  1  0  0  0
 20 21  1  0  0  0
 21 22  1  0  0  0
 22 23  1  0  0  0
 18 23  1  0  0  0
 22 24  1  0  0  0
 20  1  1  0  0  0
  1  2  1  0  0  0
  2  3  2  0  0  0
  3  4  1  0  0  0
  4  5  2  0  0  0
  1  5  1  0  0  0
  4 26  1  0  0  0
 26 27  2  0  0  0
 27 28  1  0  0  0
 28 29  2  0  0  0
 29 30  1  0  0  0
 30 31  2  0  0  0
 26 31  1  0  0  0
  3  6  1  0  0  0
  6  7  2  0  0  0
  7  8  1  0  0  0
  8  9  2  0  0  0
  9 10  1  0  0  0
 10 11  2  0  0  0
  6 11  1  0  0  0
  9 12  1  0  0  0
 12 13  2  0  0  0
 13 14  1  0  0  0
 12 15  1  0  0  0
 15 16  1  0  0  0
  8 16  1  0  0  0
 24 25  1  0  0  0
 14 17  1  0  0  0
M  END
> <minimizedAffinity>
-10.65540

$$$$
mol_11531192_0


 31 35  0  0  0  0  0  0  0  0999 V2000
    5.7763   -3.2299  -20.0811 N   0  0  0  0  0  0  0  0  0  0  0  0
    4.5339   -2.7078  -19.8296 C   0  0  0  0  0  0  0  0  0  0  0  0
    3.8065   -2.8911  -20.9843 C   0  0  0  0  0  0  0  0  0  0  0  0
    4.7228   -3.4692  -21.9125 C   0  0  0  0  0  0  0  0  0  0  0  0
    5.9170   -3.6690  -21.3436 N   0  0  0  0  0  0  0  0  0  0  0  0
    2.3929   -2.6137  -21.1488 C   0  0  0  0  0  0  0  0  0  0  0  0
    1.9249   -1.3194  -20.8553 C   0  0  0  0  0  0  0  0  0  0  0  0
    0.5610   -1.0897  -20.8115 C   0  0  0  0  0  0  0  0  0  0  0  0
   -0.3205   -2.1238  -21.0912 C   0  0  0  0  0  0  0  0  0  0  0  0
    0.1045   -3.3965  -21.4353 C   0  0  0  0  0  0  0  0  0  0  0  0
    1.4823   -3.6409  -21.4626 C   0  0  0  0  0  0  0  0  0  0  0  0
   -1.6717   -1.6224  -20.8999 C   0  0  0  0  0  0  0  0  0  0  0  0
   -2.7309   -2.3531  -21.0481 N   0  0  0  0  0  0  0  0  0  0  0  0
   -3.8810   -1.6027  -20.7786 O   0  0  0  0  0  0  0  0  0  0  0  0
   -1.6206   -0.1666  -20.4953 C   0  0  0  0  0  0  0  0  0  0  0  0
   -0.1270    0.1792  -20.4246 C   0  0  0  0  0  0  0  0  0  0  0  0
   -4.5918   -2.2581  -20.9042 H   0  0  0  0  0  0  0  0  0  0  0  0
    8.8313   -2.1947  -20.3148 C   0  0  0  0  0  0  0  0  0  0  0  0
    7.8819   -2.2033  -19.1101 C   0  0  0  0  0  0  0  0  0  0  0  0
    6.8709   -3.3732  -19.1185 C   0  0  0  0  0  0  0  0  0  0  0  0
    7.6195   -4.7000  -19.3077 C   0  0  0  0  0  0  0  0  0  0  0  0
    8.4791   -4.6903  -20.5703 C   0  0  0  0  0  0  0  0  0  0  0  0
    9.4920   -3.5478  -20.5472 C   0  0  0  0  0  0  0  0  0  0  0  0
    9.1654   -5.9350  -20.6751 O   0  0  0  0  0  0  0  0  0  0  0  0
    9.8348   -5.9774  -19.9711 H   0  0  0  0  0  0  0  0  0  0  0  0
    4.4626   -3.8645  -23.2914 C   0  0  0  0  0  0  0  0  0  0  0  0
    3.7491   -5.0317  -23.5594 C   0  0  0  0  0  0  0  0  0  0  0  0
    3.4349   -5.3149  -24.8763 C   0  0  0  0  0  0  0  0  0  0  0  0
    3.7867   -4.5315  -25.9194 N   0  0  0  0  0  0  0  0  0  0  0  0
    4.4986   -3.4204  -25.6337 C   0  0  0  0  0  0  0  0  0  0  0  0
    4.8594   -3.0476  -24.3516 C   0  0  0  0  0  0  0  0  0  0  0  0
 18 19  1  0  0  0
 19 20  1  0  0  0
 20 21  1  0  0  0
 21 22  1  0  0  0
 22 23  1  0  0  0
 18 23  1  0  0  0
 22 24  1  0  0  0
 20  1  1  0  0  0
  1  2  1  0  0  0
  2  3  2  0  0  0
  3  4  1  0  0  0
  4  5  2  0  0  0
  1  5  1  0  0  0
  4 26  1  0  0  0
 26 27  2  0  0  0
 27 28  1  0  0  0
 28 29  2  0  0  0
 29 30  1  0  0  0
 30 31  2  0  0  0
 26 31  1  0  0  0
  3  6  1  0  0  0
  6  7  2  0  0  0
  7  8  1  0  0  0
  8  9  2  0  0  0
  9 10  1  0  0  0
 10 11  2  0  0  0
  6 11  1  0  0  0
  9 12  1  0  0  0
 12 13  2  0  0  0
 13 14  1  0  0  0
 12 15  1  0  0  0
 15 16  1  0  0  0
  8 16  1  0  0  0
 24 25  1  0  0  0
 14 17  1  0  0  0
M  END
> <minimizedAffinity>
-10.49034

$$$$
mol_44587190_1


 28 31  0  0  0  0  0  0  0  0999 V2000
    1.8066   -2.0211  -20.2196 C   0  0  0  0  0  0  0  0  0  0  0  0
    0.9414   -1.0675  -19.7351 C   0  0  0  0  0  0  0  0  0  0  0  0
   -0.1497   -1.1040  -20.5554 N   0  0  0  0  0  0  0  0  0  0  0  0
   -0.0730   -2.0466  -21.5164 N   0  0  0  0  0  0  0  0  0  0  0  0
    1.1350   -2.6026  -21.3359 C   0  0  0  0  0  0  0  0  0  0  0  0
    6.8089   -1.8097  -20.7258 C   0  0  0  0  0  0  0  0  0  0  0  0
    7.8837   -2.4396  -19.8286 C   0  0  0  0  0  0  0  0  0  0  0  0
    7.1202   -3.1365  -18.7264 C   0  0  0  0  0  0  0  0  0  0  0  0
    7.6170   -3.8369  -17.7558 N   0  0  0  0  0  0  0  0  0  0  0  0
    9.0125   -3.8776  -17.8499 O   0  0  0  0  0  0  0  0  0  0  0  0
    5.6949   -2.9116  -18.9026 C   0  0  0  0  0  0  0  0  0  0  0  0
    5.5201   -2.1475  -20.0486 C   0  0  0  0  0  0  0  0  0  0  0  0
    4.2424   -1.8123  -20.4646 C   0  0  0  0  0  0  0  0  0  0  0  0
    3.1422   -2.2645  -19.7160 C   0  0  0  0  0  0  0  0  0  0  0  0
    3.3417   -3.0252  -18.5470 C   0  0  0  0  0  0  0  0  0  0  0  0
    4.6351   -3.3575  -18.1313 C   0  0  0  0  0  0  0  0  0  0  0  0
    9.2571   -4.4293  -17.0839 H   0  0  0  0  0  0  0  0  0  0  0  0
    1.6543   -3.6328  -22.2253 C   0  0  0  0  0  0  0  0  0  0  0  0
    0.8624   -4.7267  -22.5778 C   0  0  0  0  0  0  0  0  0  0  0  0
    1.4405   -5.7367  -23.3252 C   0  0  0  0  0  0  0  0  0  0  0  0
    2.7280   -5.7254  -23.7322 N   0  0  0  0  0  0  0  0  0  0  0  0
    3.4661   -4.6465  -23.3912 C   0  0  0  0  0  0  0  0  0  0  0  0
    2.9804   -3.5827  -22.6521 C   0  0  0  0  0  0  0  0  0  0  0  0
   -1.3249   -0.2580  -20.4664 C   0  0  0  0  0  0  0  0  0  0  0  0
   -2.6113   -0.9176  -20.9674 C   0  0  0  0  0  0  0  0  0  0  0  0
   -3.0481   -2.1535  -20.1872 C   0  0  0  0  0  0  0  0  0  0  0  0
   -2.7951   -3.3366  -20.9297 O   0  0  0  0  0  0  0  0  0  0  0  0
   -3.5896   -3.4807  -21.4821 H   0  0  0  0  0  0  0  0  0  0  0  0
  6  7  1  0  0  0
  7  8  1  0  0  0
  8  9  2  0  0  0
  9 10  1  0  0  0
  8 11  1  0  0  0
 11 12  2  0  0  0
  6 12  1  0  0  0
 12 13  1  0  0  0
 13 14  2  0  0  0
 14 15  1  0  0  0
 15 16  2  0  0  0
 11 16  1  0  0  0
 14  1  1  0  0  0
  1  2  2  0  0  0
  2  3  1  0  0  0
  3  4  1  0  0  0
  4  5  2  0  0  0
  1  5  1  0  0  0
  5 18  1  0  0  0
 18 19  2  0  0  0
 19 20  1  0  0  0
 20 21  2  0  0  0
 21 22  1  0  0  0
 22 23  2  0  0  0
 18 23  1  0  0  0
  3 24  1  0  0  0
 24 25  1  0  0  0
 25 26  1  0  0  0
 26 27  1  0  0  0
 10 17  1  0  0  0
 27 28  1  0  0  0
M  END
> <minimizedAffinity>
-9.86807

$$$$
mol_44587190_1


 28 31  0  0  0  0  0  0  0  0999 V2000
    0.9972   -2.4902  -21.3374 C   0  0  0  0  0  0  0  0  0  0  0  0
   -0.2674   -2.0468  -21.6486 C   0  0  0  0  0  0  0  0  0  0  0  0
   -0.5949   -1.1450  -20.6769 N   0  0  0  0  0  0  0  0  0  0  0  0
    0.3876   -0.9383  -19.7769 N   0  0  0  0  0  0  0  0  0  0  0  0
    1.3639   -1.7764  -20.1578 C   0  0  0  0  0  0  0  0  0  0  0  0
    5.2086   -4.3452  -23.3738 C   0  0  0  0  0  0  0  0  0  0  0  0
    5.3718   -5.5965  -24.2483 C   0  0  0  0  0  0  0  0  0  0  0  0
    3.9839   -6.1835  -24.3619 C   0  0  0  0  0  0  0  0  0  0  0  0
    3.6332   -7.2309  -25.0396 N   0  0  0  0  0  0  0  0  0  0  0  0
    4.7424   -7.7843  -25.6886 O   0  0  0  0  0  0  0  0  0  0  0  0
    3.0521   -5.3875  -23.5802 C   0  0  0  0  0  0  0  0  0  0  0  0
    3.7585   -4.3356  -23.0122 C   0  0  0  0  0  0  0  0  0  0  0  0
    3.0954   -3.4010  -22.2347 C   0  0  0  0  0  0  0  0  0  0  0  0
    1.7092   -3.5345  -22.0439 C   0  0  0  0  0  0  0  0  0  0  0  0
    1.0137   -4.6182  -22.6158 C   0  0  0  0  0  0  0  0  0  0  0  0
    1.6905   -5.5598  -23.3975 C   0  0  0  0  0  0  0  0  0  0  0  0
    4.3511   -8.5434  -26.1594 H   0  0  0  0  0  0  0  0  0  0  0  0
    2.5981   -1.9244  -19.3981 C   0  0  0  0  0  0  0  0  0  0  0  0
    3.7300   -1.1820  -19.7378 C   0  0  0  0  0  0  0  0  0  0  0  0
    4.9094   -1.4459  -19.0649 C   0  0  0  0  0  0  0  0  0  0  0  0
    5.0281   -2.3820  -18.0990 N   0  0  0  0  0  0  0  0  0  0  0  0
    3.9125   -3.0735  -17.7791 C   0  0  0  0  0  0  0  0  0  0  0  0
    2.6852   -2.8808  -18.3878 C   0  0  0  0  0  0  0  0  0  0  0  0
   -1.8482   -0.4243  -20.5554 C   0  0  0  0  0  0  0  0  0  0  0  0
   -3.0890   -1.2721  -20.8429 C   0  0  0  0  0  0  0  0  0  0  0  0
   -3.5036   -2.2114  -19.7147 C   0  0  0  0  0  0  0  0  0  0  0  0
   -3.0169   -3.5248  -19.9447 O   0  0  0  0  0  0  0  0  0  0  0  0
   -3.6992   -3.9723  -20.4844 H   0  0  0  0  0  0  0  0  0  0  0  0
  6  7  1  0  0  0
  7  8  1  0  0  0
  8  9  2  0  0  0
  9 10  1  0  0  0
  8 11  1  0  0  0
 11 12  2  0  0  0
  6 12  1  0  0  0
 12 13  1  0  0  0
 13 14  2  0  0  0
 14 15  1  0  0  0
 15 16  2  0  0  0
 11 16  1  0  0  0
 14  1  1  0  0  0
  1  2  2  0  0  0
  2  3  1  0  0  0
  3  4  1  0  0  0
  4  5  2  0  0  0
  1  5  1  0  0  0
  5 18  1  0  0  0
 18 19  2  0  0  0
 19 20  1  0  0  0
 20 21  2  0  0  0
 21 22  1  0  0  0
 22 23  2  0  0  0
 18 23  1  0  0  0
  3 24  1  0  0  0
 24 25  1  0  0  0
 25 26  1  0  0  0
 26 27  1  0  0  0
 10 17  1  0  0  0
 27 28  1  0  0  0
M  END
> <minimizedAffinity>
-9.82967

$$$$
mol_44587190_1


 28 31  0  0  0  0  0  0  0  0999 V2000
    3.5277   -2.7608  -21.0313 C   0  0  0  0  0  0  0  0  0  0  0  0
    4.3033   -2.4739  -19.9319 C   0  0  0  0  0  0  0  0  0  0  0  0
    5.5724   -2.8548  -20.2623 N   0  0  0  0  0  0  0  0  0  0  0  0
    5.6846   -3.3312  -21.5187 N   0  0  0  0  0  0  0  0  0  0  0  0
    4.4305   -3.3006  -21.9952 C   0  0  0  0  0  0  0  0  0  0  0  0
   -0.6411    0.0068  -20.4970 C   0  0  0  0  0  0  0  0  0  0  0  0
   -2.1041   -0.4549  -20.5571 C   0  0  0  0  0  0  0  0  0  0  0  0
   -2.0395   -1.9391  -20.8339 C   0  0  0  0  0  0  0  0  0  0  0  0
   -3.0387   -2.7584  -20.9316 N   0  0  0  0  0  0  0  0  0  0  0  0
   -4.2463   -2.0780  -20.7404 O   0  0  0  0  0  0  0  0  0  0  0  0
   -0.6524   -2.3478  -20.9822 C   0  0  0  0  0  0  0  0  0  0  0  0
    0.1469   -1.2286  -20.7915 C   0  0  0  0  0  0  0  0  0  0  0  0
    1.5253   -1.3485  -20.8504 C   0  0  0  0  0  0  0  0  0  0  0  0
    2.0888   -2.6127  -21.0949 C   0  0  0  0  0  0  0  0  0  0  0  0
    1.2596   -3.7330  -21.3018 C   0  0  0  0  0  0  0  0  0  0  0  0
   -0.1317   -3.6037  -21.2438 C   0  0  0  0  0  0  0  0  0  0  0  0
   -4.9043   -2.7923  -20.8286 H   0  0  0  0  0  0  0  0  0  0  0  0
    4.0918   -3.8078  -23.3181 C   0  0  0  0  0  0  0  0  0  0  0  0
    3.3637   -4.9904  -23.4562 C   0  0  0  0  0  0  0  0  0  0  0  0
    3.1720   -5.4935  -24.7303 C   0  0  0  0  0  0  0  0  0  0  0  0
    3.6505   -4.9062  -25.8481 N   0  0  0  0  0  0  0  0  0  0  0  0
    4.3368   -3.7539  -25.6860 C   0  0  0  0  0  0  0  0  0  0  0  0
    4.5772   -3.1665  -24.4567 C   0  0  0  0  0  0  0  0  0  0  0  0
    6.7455   -2.7779  -19.4121 C   0  0  0  0  0  0  0  0  0  0  0  0
    6.7426   -3.7718  -18.2489 C   0  0  0  0  0  0  0  0  0  0  0  0
    8.0032   -4.6216  -18.1239 C   0  0  0  0  0  0  0  0  0  0  0  0
    8.3062   -4.8806  -16.7615 O   0  0  0  0  0  0  0  0  0  0  0  0
    8.8576   -4.1297  -16.4627 H   0  0  0  0  0  0  0  0  0  0  0  0
  6  7  1  0  0  0
  7  8  1  0  0  0
  8  9  2  0  0  0
  9 10  1  0  0  0
  8 11  1  0  0  0
 11 12  2  0  0  0
  6 12  1  0  0  0
 12 13  1  0  0  0
 13 14  2  0  0  0
 14 15  1  0  0  0
 15 16  2  0  0  0
 11 16  1  0  0  0
 14  1  1  0  0  0
  1  2  2  0  0  0
  2  3  1  0  0  0
  3  4  1  0  0  0
  4  5  2  0  0  0
  1  5  1  0  0  0
  5 18  1  0  0  0
 18 19  2  0  0  0
 19 20  1  0  0  0
 20 21  2  0  0  0
 21 22  1  0  0  0
 22 23  2  0  0  0
 18 23  1  0  0  0
  3 24  1  0  0  0
 24 25  1  0  0  0
 25 26  1  0  0  0
 26 27  1  0  0  0
 10 17  1  0  0  0
 27 28  1  0  0  0
M  END
> <minimizedAffinity>
-9.66602

$$$$
mol_11653652_2


 30 34  0  0  0  0  0  0  0  0999 V2000
    5.5181   -2.9748  -20.3998 N   0  0  0  0  0  0  0  0  0  0  0  0
    4.2685   -2.5299  -20.0550 C   0  0  0  0  0  0  0  0  0  0  0  0
    3.4539   -2.8156  -21.1281 C   0  0  0  0  0  0  0  0  0  0  0  0
    4.3191   -3.3761  -22.1112 C   0  0  0  0  0  0  0  0  0  0  0  0
    5.5702   -3.4829  -21.6462 N   0  0  0  0  0  0  0  0  0  0  0  0
    2.0163   -2.6382  -21.1531 C   0  0  0  0  0  0  0  0  0  0  0  0
    1.4905   -1.3605  -20.8909 C   0  0  0  0  0  0  0  0  0  0  0  0
    0.1164   -1.1978  -20.8277 C   0  0  0  0  0  0  0  0  0  0  0  0
   -0.7174   -2.2897  -21.0264 C   0  0  0  0  0  0  0  0  0  0  0  0
   -0.2351   -3.5584  -21.3015 C   0  0  0  0  0  0  0  0  0  0  0  0
    1.1523   -3.7297  -21.3680 C   0  0  0  0  0  0  0  0  0  0  0  0
   -2.0914   -1.8386  -20.8744 C   0  0  0  0  0  0  0  0  0  0  0  0
   -3.1163   -2.6246  -20.9767 N   0  0  0  0  0  0  0  0  0  0  0  0
   -4.3013   -1.9070  -20.7778 O   0  0  0  0  0  0  0  0  0  0  0  0
   -2.1090   -0.3552  -20.5857 C   0  0  0  0  0  0  0  0  0  0  0  0
   -0.6324    0.0613  -20.5311 C   0  0  0  0  0  0  0  0  0  0  0  0
   -4.9819   -2.5998  -20.8650 H   0  0  0  0  0  0  0  0  0  0  0  0
    7.1168   -4.3113  -19.0576 C   0  0  0  0  0  0  0  0  0  0  0  0
    8.3934   -4.2521  -18.2245 C   0  0  0  0  0  0  0  0  0  0  0  0
    9.4866   -3.6436  -18.9743 N   0  0  0  0  0  0  0  0  0  0  0  0
    9.1640   -2.2808  -19.3895 C   0  0  0  0  0  0  0  0  0  0  0  0
    7.9203   -2.2553  -20.2683 C   0  0  0  0  0  0  0  0  0  0  0  0
    6.7211   -2.9182  -19.5672 C   0  0  0  0  0  0  0  0  0  0  0  0
   10.3332   -3.6347  -18.4047 H   0  0  0  0  0  0  0  0  0  0  0  0
    3.9733   -3.8090  -23.4573 C   0  0  0  0  0  0  0  0  0  0  0  0
    4.5010   -3.1503  -24.5662 C   0  0  0  0  0  0  0  0  0  0  0  0
    4.1784   -3.6320  -25.8224 C   0  0  0  0  0  0  0  0  0  0  0  0
    3.3747   -4.6970  -26.0374 N   0  0  0  0  0  0  0  0  0  0  0  0
    2.8622   -5.3033  -24.9450 C   0  0  0  0  0  0  0  0  0  0  0  0
    3.1309   -4.9051  -23.6480 C   0  0  0  0  0  0  0  0  0  0  0  0
 18 19  1  0  0  0
 19 20  1  0  0  0
 20 21  1  0  0  0
 21 22  1  0  0  0
 22 23  1  0  0  0
 18 23  1  0  0  0
 23  1  1  0  0  0
  1  2  1  0  0  0
  2  3  2  0  0  0
  3  4  1  0  0  0
  4  5  2  0  0  0
  1  5  1  0  0  0
  4 25  1  0  0  0
 25 26  2  0  0  0
 26 27  1  0  0  0
 27 28  2  0  0  0
 28 29  1  0  0  0
 29 30  2  0  0  0
 25 30  1  0  0  0
  3  6  1  0  0  0
  6  7  2  0  0  0
  7  8  1  0  0  0
  8  9  2  0  0  0
  9 10  1  0  0  0
 10 11  2  0  0  0
  6 11  1  0  0  0
  9 12  1  0  0  0
 12 13  2  0  0  0
 13 14  1  0  0  0
 12 15  1  0  0  0
 15 16  1  0  0  0
  8 16  1  0  0  0
 20 24  1  0  0  0
 14 17  1  0  0  0
M  END
> <minimizedAffinity>
-10.77955

$$$$
mol_11653652_2


 30 34  0  0  0  0  0  0  0  0999 V2000
    4.5329   -3.5145  -23.1058 N   0  0  0  0  0  0  0  0  0  0  0  0
    3.1787   -3.7078  -23.1905 C   0  0  0  0  0  0  0  0  0  0  0  0
    2.6587   -3.2871  -21.9865 C   0  0  0  0  0  0  0  0  0  0  0  0
    3.7896   -2.9157  -21.2040 C   0  0  0  0  0  0  0  0  0  0  0  0
    4.9229   -3.0431  -21.9058 N   0  0  0  0  0  0  0  0  0  0  0  0
    1.2466   -3.1873  -21.6783 C   0  0  0  0  0  0  0  0  0  0  0  0
    0.6853   -1.9107  -21.4971 C   0  0  0  0  0  0  0  0  0  0  0  0
   -0.6430   -1.8068  -21.1181 C   0  0  0  0  0  0  0  0  0  0  0  0
   -1.3978   -2.9561  -20.9276 C   0  0  0  0  0  0  0  0  0  0  0  0
   -0.8824   -4.2282  -21.1117 C   0  0  0  0  0  0  0  0  0  0  0  0
    0.4587   -4.3404  -21.4957 C   0  0  0  0  0  0  0  0  0  0  0  0
   -2.7309   -2.5531  -20.5092 C   0  0  0  0  0  0  0  0  0  0  0  0
   -3.6752   -3.3940  -20.2268 N   0  0  0  0  0  0  0  0  0  0  0  0
   -4.8385   -2.7115  -19.8528 O   0  0  0  0  0  0  0  0  0  0  0  0
   -2.8132   -1.0447  -20.4622 C   0  0  0  0  0  0  0  0  0  0  0  0
   -1.4101   -0.5534  -20.8452 C   0  0  0  0  0  0  0  0  0  0  0  0
   -5.4547   -3.4413  -19.6568 H   0  0  0  0  0  0  0  0  0  0  0  0
    6.6033   -4.7566  -23.6664 C   0  0  0  0  0  0  0  0  0  0  0  0
    7.6027   -5.0696  -24.7756 C   0  0  0  0  0  0  0  0  0  0  0  0
    6.9318   -5.5956  -25.9592 N   0  0  0  0  0  0  0  0  0  0  0  0
    5.9577   -4.6476  -26.4940 C   0  0  0  0  0  0  0  0  0  0  0  0
    4.8915   -4.3144  -25.4588 C   0  0  0  0  0  0  0  0  0  0  0  0
    5.5170   -3.7878  -24.1548 C   0  0  0  0  0  0  0  0  0  0  0  0
    7.6218   -5.8167  -26.6777 H   0  0  0  0  0  0  0  0  0  0  0  0
    3.8020   -2.4437  -19.8270 C   0  0  0  0  0  0  0  0  0  0  0  0
    2.8678   -2.9220  -18.9103 C   0  0  0  0  0  0  0  0  0  0  0  0
    2.9538   -2.4772  -17.6030 C   0  0  0  0  0  0  0  0  0  0  0  0
    3.8836   -1.5997  -17.1654 N   0  0  0  0  0  0  0  0  0  0  0  0
    4.7634   -1.1382  -18.0800 C   0  0  0  0  0  0  0  0  0  0  0  0
    4.7674   -1.5278  -19.4071 C   0  0  0  0  0  0  0  0  0  0  0  0
 18 19  1  0  0  0
 19 20  1  0  0  0
 20 21  1  0  0  0
 21 22  1  0  0  0
 22 23  1  0  0  0
 18 23  1  0  0  0
 23  1  1  0  0  0
  1  2  1  0  0  0
  2  3  2  0  0  0
  3  4  1  0  0  0
  4  5  2  0  0  0
  1  5  1  0  0  0
  4 25  1  0  0  0
 25 26  2  0  0  0
 26 27  1  0  0  0
 27 28  2  0  0  0
 28 29  1  0  0  0
 29 30  2  0  0  0
 25 30  1  0  0  0
  3  6  1  0  0  0
  6  7  2  0  0  0
  7  8  1  0  0  0
  8  9  2  0  0  0
  9 10  1  0  0  0
 10 11  2  0  0  0
  6 11  1  0  0  0
  9 12  1  0  0  0
 12 13  2  0  0  0
 13 14  1  0  0  0
 12 15  1  0  0  0
 15 16  1  0  0  0
  8 16  1  0  0  0
 20 24  1  0  0  0
 14 17  1  0  0  0
M  END
> <minimizedAffinity>
-10.49831

$$$$
mol_11653652_2


 30 34  0  0  0  0  0  0  0  0999 V2000
   -1.5602   -3.4452  -20.8903 N   0  0  0  0  0  0  0  0  0  0  0  0
   -0.5423   -3.0403  -20.0666 C   0  0  0  0  0  0  0  0  0  0  0  0
    0.6264   -3.3539  -20.7244 C   0  0  0  0  0  0  0  0  0  0  0  0
    0.2143   -4.0127  -21.9183 C   0  0  0  0  0  0  0  0  0  0  0  0
   -1.1210   -4.0449  -22.0135 N   0  0  0  0  0  0  0  0  0  0  0  0
    1.9559   -2.9861  -20.2818 C   0  0  0  0  0  0  0  0  0  0  0  0
    2.9744   -2.8573  -21.2429 C   0  0  0  0  0  0  0  0  0  0  0  0
    4.2670   -2.5903  -20.8228 C   0  0  0  0  0  0  0  0  0  0  0  0
    4.5370   -2.4506  -19.4683 C   0  0  0  0  0  0  0  0  0  0  0  0
    3.5567   -2.5558  -18.4958 C   0  0  0  0  0  0  0  0  0  0  0  0
    2.2483   -2.8244  -18.9134 C   0  0  0  0  0  0  0  0  0  0  0  0
    5.9628   -2.2081  -19.3178 C   0  0  0  0  0  0  0  0  0  0  0  0
    6.5438   -2.0557  -18.1698 N   0  0  0  0  0  0  0  0  0  0  0  0
    7.9161   -1.8427  -18.3436 O   0  0  0  0  0  0  0  0  0  0  0  0
    6.6173   -2.1702  -20.6796 C   0  0  0  0  0  0  0  0  0  0  0  0
    5.4850   -2.4507  -21.6777 C   0  0  0  0  0  0  0  0  0  0  0  0
    8.2322   -1.7588  -17.4250 H   0  0  0  0  0  0  0  0  0  0  0  0
   -3.3377   -3.5912  -19.1689 C   0  0  0  0  0  0  0  0  0  0  0  0
   -4.8267   -3.3962  -18.9008 C   0  0  0  0  0  0  0  0  0  0  0  0
   -5.2609   -2.0555  -19.2774 N   0  0  0  0  0  0  0  0  0  0  0  0
   -5.0266   -1.7900  -20.6945 C   0  0  0  0  0  0  0  0  0  0  0  0
   -3.5489   -1.9194  -21.0396 C   0  0  0  0  0  0  0  0  0  0  0  0
   -2.9945   -3.2975  -20.6363 C   0  0  0  0  0  0  0  0  0  0  0  0
   -6.2534   -1.9427  -19.0693 H   0  0  0  0  0  0  0  0  0  0  0  0
    1.0602   -4.5929  -22.9512 C   0  0  0  0  0  0  0  0  0  0  0  0
    1.4878   -3.8188  -24.0282 C   0  0  0  0  0  0  0  0  0  0  0  0
    2.3294   -4.4055  -24.9564 C   0  0  0  0  0  0  0  0  0  0  0  0
    2.7531   -5.6868  -24.8853 N   0  0  0  0  0  0  0  0  0  0  0  0
    2.3070   -6.4186  -23.8417 C   0  0  0  0  0  0  0  0  0  0  0  0
    1.4720   -5.9229  -22.8568 C   0  0  0  0  0  0  0  0  0  0  0  0
 18 19  1  0  0  0
 19 20  1  0  0  0
 20 21  1  0  0  0
 21 22  1  0  0  0
 22 23  1  0  0  0
 18 23  1  0  0  0
 23  1  1  0  0  0
  1  2  1  0  0  0
  2  3  2  0  0  0
  3  4  1  0  0  0
  4  5  2  0  0  0
  1  5  1  0  0  0
  4 25  1  0  0  0
 25 26  2  0  0  0
 26 27  1  0  0  0
 27 28  2  0  0  0
 28 29  1  0  0  0
 29 30  2  0  0  0
 25 30  1  0  0  0
  3  6  1  0  0  0
  6  7  2  0  0  0
  7  8  1  0  0  0
  8  9  2  0  0  0
  9 10  1  0  0  0
 10 11  2  0  0  0
  6 11  1  0  0  0
  9 12  1  0  0  0
 12 13  2  0  0  0
 13 14  1  0  0  0
 12 15  1  0  0  0
 15 16  1  0  0  0
  8 16  1  0  0  0
 20 24  1  0  0  0
 14 17  1  0  0  0
M  END
> <minimizedAffinity>
-10.27093

$$$$
mol_139592319_3


 31 35  0  0  0  0  0  0  0  0999 V2000
    2.5736   -3.3514  -21.8692 C   0  0  0  0  0  0  0  0  0  0  0  0
    3.0126   -3.9014  -23.0504 C   0  0  0  0  0  0  0  0  0  0  0  0
    4.3687   -3.9840  -22.9565 N   0  0  0  0  0  0  0  0  0  0  0  0
    4.8480   -3.4337  -21.8194 N   0  0  0  0  0  0  0  0  0  0  0  0
    3.7544   -3.0770  -21.1250 C   0  0  0  0  0  0  0  0  0  0  0  0
   -2.7853   -0.7867  -20.9103 C   0  0  0  0  0  0  0  0  0  0  0  0
   -1.3266   -0.3989  -20.6332 C   0  0  0  0  0  0  0  0  0  0  0  0
   -0.6254   -1.6682  -21.0000 C   0  0  0  0  0  0  0  0  0  0  0  0
   -1.5173   -2.7485  -21.0115 C   0  0  0  0  0  0  0  0  0  0  0  0
   -2.9092   -2.3034  -20.6399 C   0  0  0  0  0  0  0  0  0  0  0  0
   -1.0786   -4.0299  -21.3066 C   0  0  0  0  0  0  0  0  0  0  0  0
    0.2749   -4.2215  -21.5960 C   0  0  0  0  0  0  0  0  0  0  0  0
    1.1742   -3.1388  -21.5715 C   0  0  0  0  0  0  0  0  0  0  0  0
    0.7208   -1.8486  -21.2644 C   0  0  0  0  0  0  0  0  0  0  0  0
   -3.2243   -2.5420  -19.2243 N   0  0  0  0  0  0  0  0  0  0  0  0
   -3.8516   -3.8546  -19.1616 O   0  0  0  0  0  0  0  0  0  0  0  0
   -2.3476   -2.6983  -18.7185 H   0  0  0  0  0  0  0  0  0  0  0  0
   -4.6744   -3.6607  -18.6719 H   0  0  0  0  0  0  0  0  0  0  0  0
    5.3038   -4.6172  -23.8859 C   0  0  0  0  0  0  0  0  0  0  0  0
    4.6253   -5.5865  -24.8594 C   0  0  0  0  0  0  0  0  0  0  0  0
    4.4147   -6.9760  -24.2678 C   0  0  0  0  0  0  0  0  0  0  0  0
    5.6551   -7.5194  -23.7216 N   0  0  0  0  0  0  0  0  0  0  0  0
    6.2272   -6.6754  -22.6774 C   0  0  0  0  0  0  0  0  0  0  0  0
    6.5066   -5.2625  -23.1821 C   0  0  0  0  0  0  0  0  0  0  0  0
    5.4780   -8.4514  -23.3442 H   0  0  0  0  0  0  0  0  0  0  0  0
    3.8517   -2.5054  -19.7870 C   0  0  0  0  0  0  0  0  0  0  0  0
    4.8954   -1.6359  -19.4641 C   0  0  0  0  0  0  0  0  0  0  0  0
    4.9730   -1.1560  -18.1688 C   0  0  0  0  0  0  0  0  0  0  0  0
    4.0974   -1.4817  -17.1945 N   0  0  0  0  0  0  0  0  0  0  0  0
    3.0895   -2.3141  -17.5371 C   0  0  0  0  0  0  0  0  0  0  0  0
    2.9210   -2.8422  -18.8055 C   0  0  0  0  0  0  0  0  0  0  0  0
  6  7  1  0  0  0
  7  8  1  0  0  0
  8  9  2  0  0  0
  9 10  1  0  0  0
  6 10  1  0  0  0
 10 15  1  0  0  0
 15 16  1  0  0  0
  9 11  1  0  0  0
 11 12  2  0  0  0
 12 13  1  0  0  0
 13 14  2  0  0  0
  8 14  1  0  0  0
 13  1  1  0  0  0
  1  2  2  0  0  0
  2  3  1  0  0  0
  3  4  1  0  0  0
  4  5  2  0  0  0
  1  5  1  0  0  0
  5 26  1  0  0  0
 26 27  2  0  0  0
 27 28  1  0  0  0
 28 29  2  0  0  0
 29 30  1  0  0  0
 30 31  2  0  0  0
 26 31  1  0  0  0
  3 19  1  0  0  0
 19 20  1  0  0  0
 20 21  1  0  0  0
 21 22  1  0  0  0
 22 23  1  0  0  0
 23 24  1  0  0  0
 19 24  1  0  0  0
 15 17  1  0  0  0
 16 18  1  0  0  0
 22 25  1  0  0  0
M  END
> <minimizedAffinity>
-10.47322

$$$$
mol_139592319_3


 31 35  0  0  0  0  0  0  0  0999 V2000
    2.7695   -2.9241  -21.1874 C   0  0  0  0  0  0  0  0  0  0  0  0
    3.6132   -2.4055  -20.2336 C   0  0  0  0  0  0  0  0  0  0  0  0
    4.8805   -2.6053  -20.6903 N   0  0  0  0  0  0  0  0  0  0  0  0
    4.9152   -3.3077  -21.8440 N   0  0  0  0  0  0  0  0  0  0  0  0
    3.6253   -3.4758  -22.1807 C   0  0  0  0  0  0  0  0  0  0  0  0
   -2.9202   -0.9697  -21.0401 C   0  0  0  0  0  0  0  0  0  0  0  0
   -1.5626   -0.4054  -20.6001 C   0  0  0  0  0  0  0  0  0  0  0  0
   -0.6828   -1.5962  -20.8128 C   0  0  0  0  0  0  0  0  0  0  0  0
   -1.4399   -2.7728  -20.8840 C   0  0  0  0  0  0  0  0  0  0  0  0
   -2.9093   -2.4803  -20.7136 C   0  0  0  0  0  0  0  0  0  0  0  0
   -0.8267   -4.0037  -21.0583 C   0  0  0  0  0  0  0  0  0  0  0  0
    0.5659   -4.0461  -21.1646 C   0  0  0  0  0  0  0  0  0  0  0  0
    1.3283   -2.8659  -21.0797 C   0  0  0  0  0  0  0  0  0  0  0  0
    0.6981   -1.6275  -20.8958 C   0  0  0  0  0  0  0  0  0  0  0  0
   -3.3788   -2.7055  -19.3392 N   0  0  0  0  0  0  0  0  0  0  0  0
   -4.0013   -4.0219  -19.3312 O   0  0  0  0  0  0  0  0  0  0  0  0
   -2.5631   -2.8497  -18.7370 H   0  0  0  0  0  0  0  0  0  0  0  0
   -4.8747   -3.8285  -18.9386 H   0  0  0  0  0  0  0  0  0  0  0  0
    6.1362   -2.1208  -20.1179 C   0  0  0  0  0  0  0  0  0  0  0  0
    7.3669   -2.8700  -20.6393 C   0  0  0  0  0  0  0  0  0  0  0  0
    7.6340   -4.1715  -19.8913 C   0  0  0  0  0  0  0  0  0  0  0  0
    7.6874   -3.9585  -18.4477 N   0  0  0  0  0  0  0  0  0  0  0  0
    6.4532   -3.3880  -17.9173 C   0  0  0  0  0  0  0  0  0  0  0  0
    6.1129   -2.0580  -18.5837 C   0  0  0  0  0  0  0  0  0  0  0  0
    7.8768   -4.8473  -17.9821 H   0  0  0  0  0  0  0  0  0  0  0  0
    3.2397   -4.1336  -23.4237 C   0  0  0  0  0  0  0  0  0  0  0  0
    2.5368   -5.3398  -23.3965 C   0  0  0  0  0  0  0  0  0  0  0  0
    2.2341   -5.9503  -24.6005 C   0  0  0  0  0  0  0  0  0  0  0  0
    2.5813   -5.4482  -25.8044 N   0  0  0  0  0  0  0  0  0  0  0  0
    3.2491   -4.2734  -25.8028 C   0  0  0  0  0  0  0  0  0  0  0  0
    3.5927   -3.5817  -24.6541 C   0  0  0  0  0  0  0  0  0  0  0  0
  6  7  1  0  0  0
  7  8  1  0  0  0
  8  9  2  0  0  0
  9 10  1  0  0  0
  6 10  1  0  0  0
 10 15  1  0  0  0
 15 16  1  0  0  0
  9 11  1  0  0  0
 11 12  2  0  0  0
 12 13  1  0  0  0
 13 14  2  0  0  0
  8 14  1  0  0  0
 13  1  1  0  0  0
  1  2  2  0  0  0
  2  3  1  0  0  0
  3  4  1  0  0  0
  4  5  2  0  0  0
  1  5  1  0  0  0
  5 26  1  0  0  0
 26 27  2  0  0  0
 27 28  1  0  0  0
 28 29  2  0  0  0
 29 30  1  0  0  0
 30 31  2  0  0  0
 26 31  1  0  0  0
  3 19  1  0  0  0
 19 20  1  0  0  0
 20 21  1  0  0  0
 21 22  1  0  0  0
 22 23  1  0  0  0
 23 24  1  0  0  0
 19 24  1  0  0  0
 15 17  1  0  0  0
 16 18  1  0  0  0
 22 25  1  0  0  0
M  END
> <minimizedAffinity>
-10.14835

$$$$
mol_139592319_3


 31 35  0  0  0  0  0  0  0  0999 V2000
    2.1138   -3.0152  -21.7095 C   0  0  0  0  0  0  0  0  0  0  0  0
    2.4076   -3.6499  -22.8933 C   0  0  0  0  0  0  0  0  0  0  0  0
    3.7338   -3.9556  -22.8479 N   0  0  0  0  0  0  0  0  0  0  0  0
    4.3433   -3.4743  -21.7422 N   0  0  0  0  0  0  0  0  0  0  0  0
    3.3528   -2.9291  -21.0161 C   0  0  0  0  0  0  0  0  0  0  0  0
   -3.4354   -2.6876  -19.4045 C   0  0  0  0  0  0  0  0  0  0  0  0
   -2.5449   -3.8145  -19.9450 C   0  0  0  0  0  0  0  0  0  0  0  0
   -1.4017   -3.0256  -20.5000 C   0  0  0  0  0  0  0  0  0  0  0  0
   -1.7665   -1.6880  -20.7015 C   0  0  0  0  0  0  0  0  0  0  0  0
   -3.2032   -1.4551  -20.3077 C   0  0  0  0  0  0  0  0  0  0  0  0
   -0.8652   -0.7768  -21.2296 C   0  0  0  0  0  0  0  0  0  0  0  0
    0.4191   -1.2209  -21.5548 C   0  0  0  0  0  0  0  0  0  0  0  0
    0.7823   -2.5676  -21.3651 C   0  0  0  0  0  0  0  0  0  0  0  0
   -0.1397   -3.4819  -20.8374 C   0  0  0  0  0  0  0  0  0  0  0  0
   -4.1206   -1.4876  -21.4556 N   0  0  0  0  0  0  0  0  0  0  0  0
   -5.3872   -1.9991  -20.9513 O   0  0  0  0  0  0  0  0  0  0  0  0
   -4.3619   -0.5242  -21.7056 H   0  0  0  0  0  0  0  0  0  0  0  0
   -5.5708   -2.7296  -21.5735 H   0  0  0  0  0  0  0  0  0  0  0  0
    4.5128   -4.7509  -23.7966 C   0  0  0  0  0  0  0  0  0  0  0  0
    5.0178   -3.9394  -24.9940 C   0  0  0  0  0  0  0  0  0  0  0  0
    3.9795   -3.8020  -26.1021 C   0  0  0  0  0  0  0  0  0  0  0  0
    3.4463   -5.1017  -26.5007 N   0  0  0  0  0  0  0  0  0  0  0  0
    2.8203   -5.8167  -25.3930 C   0  0  0  0  0  0  0  0  0  0  0  0
    3.7938   -6.0341  -24.2381 C   0  0  0  0  0  0  0  0  0  0  0  0
    2.7633   -4.9715  -27.2485 H   0  0  0  0  0  0  0  0  0  0  0  0
    3.5975   -2.3599  -19.6960 C   0  0  0  0  0  0  0  0  0  0  0  0
    4.8729   -1.9137  -19.3441 C   0  0  0  0  0  0  0  0  0  0  0  0
    5.0673   -1.4250  -18.0644 C   0  0  0  0  0  0  0  0  0  0  0  0
    4.0938   -1.3558  -17.1319 N   0  0  0  0  0  0  0  0  0  0  0  0
    2.8661   -1.7817  -17.5027 C   0  0  0  0  0  0  0  0  0  0  0  0
    2.5684   -2.2806  -18.7591 C   0  0  0  0  0  0  0  0  0  0  0  0
  6  7  1  0  0  0
  7  8  1  0  0  0
  8  9  2  0  0  0
  9 10  1  0  0  0
  6 10  1  0  0  0
 10 15  1  0  0  0
 15 16  1  0  0  0
  9 11  1  0  0  0
 11 12  2  0  0  0
 12 13  1  0  0  0
 13 14  2  0  0  0
  8 14  1  0  0  0
 13  1  1  0  0  0
  1  2  2  0  0  0
  2  3  1  0  0  0
  3  4  1  0  0  0
  4  5  2  0  0  0
  1  5  1  0  0  0
  5 26  1  0  0  0
 26 27  2  0  0  0
 27 28  1  0  0  0
 28 29  2  0  0  0
 29 30  1  0  0  0
 30 31  2  0  0  0
 26 31  1  0  0  0
  3 19  1  0  0  0
 19 20  1  0  0  0
 20 21  1  0  0  0
 21 22  1  0  0  0
 22 23  1  0  0  0
 23 24  1  0  0  0
 19 24  1  0  0  0
 15 17  1  0  0  0
 16 18  1  0  0  0
 22 25  1  0  0  0
M  END
> <minimizedAffinity>
-10.10224

$$$$
mol_135927350_4


 31 35  0  0  0  0  0  0  0  0999 V2000
    5.7673   -2.8071  -21.4017 N   0  0  0  0  0  0  0  0  0  0  0  0
    4.4194   -2.2770  -21.0074 C   0  0  0  0  0  0  0  0  0  0  0  0
    3.4410   -3.0289  -21.8655 C   0  0  0  0  0  0  0  0  0  0  0  0
    4.1407   -3.7367  -22.7647 C   0  0  0  0  0  0  0  0  0  0  0  0
    5.4848   -3.6020  -22.5330 N   0  0  0  0  0  0  0  0  0  0  0  0
    6.1835   -3.9397  -23.1881 H   0  0  0  0  0  0  0  0  0  0  0  0
    2.0016   -3.0066  -21.6398 C   0  0  0  0  0  0  0  0  0  0  0  0
    1.4029   -1.8158  -21.1914 C   0  0  0  0  0  0  0  0  0  0  0  0
    0.0382   -1.7920  -20.9588 C   0  0  0  0  0  0  0  0  0  0  0  0
   -0.7160   -2.9380  -21.1662 C   0  0  0  0  0  0  0  0  0  0  0  0
   -0.1646   -4.1242  -21.6183 C   0  0  0  0  0  0  0  0  0  0  0  0
    1.2119   -4.1508  -21.8645 C   0  0  0  0  0  0  0  0  0  0  0  0
   -2.0950   -2.6376  -20.8176 C   0  0  0  0  0  0  0  0  0  0  0  0
   -3.0517   -3.5083  -20.8780 N   0  0  0  0  0  0  0  0  0  0  0  0
   -4.2611   -2.9325  -20.4728 O   0  0  0  0  0  0  0  0  0  0  0  0
   -2.2044   -1.1941  -20.3828 C   0  0  0  0  0  0  0  0  0  0  0  0
   -0.7781   -0.6347  -20.4818 C   0  0  0  0  0  0  0  0  0  0  0  0
   -4.8807   -3.6826  -20.5373 H   0  0  0  0  0  0  0  0  0  0  0  0
    7.8629   -4.0186  -20.5044 C   0  0  0  0  0  0  0  0  0  0  0  0
    8.3566   -4.8589  -19.3295 C   0  0  0  0  0  0  0  0  0  0  0  0
    8.1487   -4.1699  -18.0582 N   0  0  0  0  0  0  0  0  0  0  0  0
    6.7331   -3.8766  -17.8376 C   0  0  0  0  0  0  0  0  0  0  0  0
    6.1592   -3.0012  -18.9501 C   0  0  0  0  0  0  0  0  0  0  0  0
    6.3738   -3.6480  -20.3317 C   0  0  0  0  0  0  0  0  0  0  0  0
    8.4958   -4.7531  -17.2966 H   0  0  0  0  0  0  0  0  0  0  0  0
    3.6418   -4.6174  -23.8190 C   0  0  0  0  0  0  0  0  0  0  0  0
    3.2416   -4.0896  -25.0475 C   0  0  0  0  0  0  0  0  0  0  0  0
    2.8019   -4.9625  -26.0280 C   0  0  0  0  0  0  0  0  0  0  0  0
    2.7266   -6.3004  -25.8643 N   0  0  0  0  0  0  0  0  0  0  0  0
    3.1100   -6.7869  -24.6646 C   0  0  0  0  0  0  0  0  0  0  0  0
    3.5689   -5.9974  -23.6241 C   0  0  0  0  0  0  0  0  0  0  0  0
 19 20  1  0  0  0
 20 21  1  0  0  0
 21 22  1  0  0  0
 22 23  1  0  0  0
 23 24  1  0  0  0
 19 24  1  0  0  0
 24  1  1  0  0  0
  1  2  1  0  0  0
  2  3  1  0  0  0
  3  4  2  0  0  0
  4  5  1  0  0  0
  1  5  1  0  0  0
  4 26  1  0  0  0
 26 27  2  0  0  0
 27 28  1  0  0  0
 28 29  2  0  0  0
 29 30  1  0  0  0
 30 31  2  0  0  0
 26 31  1  0  0  0
  3  7  1  0  0  0
  7  8  2  0  0  0
  8  9  1  0  0  0
  9 10  2  0  0  0
 10 11  1  0  0  0
 11 12  2  0  0  0
  7 12  1  0  0  0
 10 13  1  0  0  0
 13 14  2  0  0  0
 14 15  1  0  0  0
 13 16  1  0  0  0
 16 17  1  0  0  0
  9 17  1  0  0  0
 21 25  1  0  0  0
  5  6  1  0  0  0
 15 18  1  0  0  0
M  END
> <minimizedAffinity>
-10.33481

$$$$
mol_135927350_4


 31 35  0  0  0  0  0  0  0  0999 V2000
   -0.6885   -1.0077  -21.0500 N   0  0  0  0  0  0  0  0  0  0  0  0
   -0.1735   -1.8929  -22.1475 C   0  0  0  0  0  0  0  0  0  0  0  0
    1.1221   -2.4460  -21.6237 C   0  0  0  0  0  0  0  0  0  0  0  0
    1.4089   -1.8093  -20.4785 C   0  0  0  0  0  0  0  0  0  0  0  0
    0.3911   -0.9551  -20.1425 N   0  0  0  0  0  0  0  0  0  0  0  0
    0.4791   -0.2771  -19.3915 H   0  0  0  0  0  0  0  0  0  0  0  0
    1.8368   -3.5431  -22.2630 C   0  0  0  0  0  0  0  0  0  0  0  0
    3.2373   -3.4708  -22.3692 C   0  0  0  0  0  0  0  0  0  0  0  0
    3.9215   -4.5018  -22.9904 C   0  0  0  0  0  0  0  0  0  0  0  0
    3.2203   -5.5849  -23.5007 C   0  0  0  0  0  0  0  0  0  0  0  0
    1.8441   -5.6970  -23.4044 C   0  0  0  0  0  0  0  0  0  0  0  0
    1.1490   -4.6631  -22.7688 C   0  0  0  0  0  0  0  0  0  0  0  0
    4.1769   -6.4894  -24.1175 C   0  0  0  0  0  0  0  0  0  0  0  0
    3.8380   -7.5899  -24.7098 N   0  0  0  0  0  0  0  0  0  0  0  0
    4.9699   -8.2408  -25.2135 O   0  0  0  0  0  0  0  0  0  0  0  0
    5.5737   -5.9343  -23.9582 C   0  0  0  0  0  0  0  0  0  0  0  0
    5.3968   -4.6094  -23.2030 C   0  0  0  0  0  0  0  0  0  0  0  0
    4.5837   -9.0232  -25.6487 H   0  0  0  0  0  0  0  0  0  0  0  0
   -3.2562   -1.2712  -21.0160 C   0  0  0  0  0  0  0  0  0  0  0  0
   -4.3869   -1.9435  -20.2416 C   0  0  0  0  0  0  0  0  0  0  0  0
   -4.1871   -3.3881  -20.1554 N   0  0  0  0  0  0  0  0  0  0  0  0
   -2.9284   -3.7118  -19.4848 C   0  0  0  0  0  0  0  0  0  0  0  0
   -1.7297   -3.1106  -20.2162 C   0  0  0  0  0  0  0  0  0  0  0  0
   -1.8857   -1.5865  -20.3782 C   0  0  0  0  0  0  0  0  0  0  0  0
   -4.9619   -3.8068  -19.6406 H   0  0  0  0  0  0  0  0  0  0  0  0
    2.5640   -1.9880  -19.6010 C   0  0  0  0  0  0  0  0  0  0  0  0
    2.5127   -2.8997  -18.5455 C   0  0  0  0  0  0  0  0  0  0  0  0
    3.6390   -3.0578  -17.7560 C   0  0  0  0  0  0  0  0  0  0  0  0
    4.7877   -2.3727  -17.9396 N   0  0  0  0  0  0  0  0  0  0  0  0
    4.8104   -1.4897  -18.9608 C   0  0  0  0  0  0  0  0  0  0  0  0
    3.7391   -1.2644  -19.8082 C   0  0  0  0  0  0  0  0  0  0  0  0
 19 20  1  0  0  0
 20 21  1  0  0  0
 21 22  1  0  0  0
 22 23  1  0  0  0
 23 24  1  0  0  0
 19 24  1  0  0  0
 24  1  1  0  0  0
  1  2  1  0  0  0
  2  3  1  0  0  0
  3  4  2  0  0  0
  4  5  1  0  0  0
  1  5  1  0  0  0
  4 26  1  0  0  0
 26 27  2  0  0  0
 27 28  1  0  0  0
 28 29  2  0  0  0
 29 30  1  0  0  0
 30 31  2  0  0  0
 26 31  1  0  0  0
  3  7  1  0  0  0
  7  8  2  0  0  0
  8  9  1  0  0  0
  9 10  2  0  0  0
 10 11  1  0  0  0
 11 12  2  0  0  0
  7 12  1  0  0  0
 10 13  1  0  0  0
 13 14  2  0  0  0
 14 15  1  0  0  0
 13 16  1  0  0  0
 16 17  1  0  0  0
  9 17  1  0  0  0
 21 25  1  0  0  0
  5  6  1  0  0  0
 15 18  1  0  0  0
M  END
> <minimizedAffinity>
-10.01333

$$$$
mol_135927350_4


 31 35  0  0  0  0  0  0  0  0999 V2000
    6.7162   -4.1326  -24.4571 N   0  0  0  0  0  0  0  0  0  0  0  0
    5.5521   -3.4233  -23.8286 C   0  0  0  0  0  0  0  0  0  0  0  0
    4.3730   -4.3232  -24.0712 C   0  0  0  0  0  0  0  0  0  0  0  0
    4.7664   -5.3043  -24.8969 C   0  0  0  0  0  0  0  0  0  0  0  0
    6.1084   -5.1984  -25.1545 N   0  0  0  0  0  0  0  0  0  0  0  0
    6.5681   -5.7555  -25.8684 H   0  0  0  0  0  0  0  0  0  0  0  0
    3.0838   -4.1416  -23.4168 C   0  0  0  0  0  0  0  0  0  0  0  0
    3.0274   -3.4051  -22.2201 C   0  0  0  0  0  0  0  0  0  0  0  0
    1.8085   -3.2425  -21.5839 C   0  0  0  0  0  0  0  0  0  0  0  0
    0.6655   -3.8086  -22.1301 C   0  0  0  0  0  0  0  0  0  0  0  0
    0.6795   -4.5292  -23.3117 C   0  0  0  0  0  0  0  0  0  0  0  0
    1.9066   -4.6878  -23.9637 C   0  0  0  0  0  0  0  0  0  0  0  0
   -0.4502   -3.5090  -21.2475 C   0  0  0  0  0  0  0  0  0  0  0  0
   -1.6597   -3.9183  -21.4630 N   0  0  0  0  0  0  0  0  0  0  0  0
   -2.5106   -3.4844  -20.4401 O   0  0  0  0  0  0  0  0  0  0  0  0
    0.0356   -2.6793  -20.0812 C   0  0  0  0  0  0  0  0  0  0  0  0
    1.5430   -2.5027  -20.3130 C   0  0  0  0  0  0  0  0  0  0  0  0
   -3.3657   -3.8729  -20.7019 H   0  0  0  0  0  0  0  0  0  0  0  0
    7.1301   -4.7823  -21.9933 C   0  0  0  0  0  0  0  0  0  0  0  0
    8.1917   -5.3657  -21.0644 C   0  0  0  0  0  0  0  0  0  0  0  0
    8.6558   -6.6673  -21.5382 N   0  0  0  0  0  0  0  0  0  0  0  0
    9.2346   -6.5702  -22.8776 C   0  0  0  0  0  0  0  0  0  0  0  0
    8.2258   -6.0302  -23.8894 C   0  0  0  0  0  0  0  0  0  0  0  0
    7.6619   -4.6692  -23.4386 C   0  0  0  0  0  0  0  0  0  0  0  0
    9.3564   -7.0322  -20.8927 H   0  0  0  0  0  0  0  0  0  0  0  0
    3.9815   -6.4155  -25.4310 C   0  0  0  0  0  0  0  0  0  0  0  0
    3.2982   -6.2785  -26.6403 C   0  0  0  0  0  0  0  0  0  0  0  0
    2.5897   -7.3654  -27.1236 C   0  0  0  0  0  0  0  0  0  0  0  0
    2.5106   -8.5537  -26.4881 N   0  0  0  0  0  0  0  0  0  0  0  0
    3.1718   -8.6595  -25.3156 C   0  0  0  0  0  0  0  0  0  0  0  0
    3.9112   -7.6333  -24.7530 C   0  0  0  0  0  0  0  0  0  0  0  0
 19 20  1  0  0  0
 20 21  1  0  0  0
 21 22  1  0  0  0
 22 23  1  0  0  0
 23 24  1  0  0  0
 19 24  1  0  0  0
 24  1  1  0  0  0
  1  2  1  0  0  0
  2  3  1  0  0  0
  3  4  2  0  0  0
  4  5  1  0  0  0
  1  5  1  0  0  0
  4 26  1  0  0  0
 26 27  2  0  0  0
 27 28  1  0  0  0
 28 29  2  0  0  0
 29 30  1  0  0  0
 30 31  2  0  0  0
 26 31  1  0  0  0
  3  7  1  0  0  0
  7  8  2  0  0  0
  8  9  1  0  0  0
  9 10  2  0  0  0
 10 11  1  0  0  0
 11 12  2  0  0  0
  7 12  1  0  0  0
 10 13  1  0  0  0
 13 14  2  0  0  0
 14 15  1  0  0  0
 13 16  1  0  0  0
 16 17  1  0  0  0
  9 17  1  0  0  0
 21 25  1  0  0  0
  5  6  1  0  0  0
 15 18  1  0  0  0
M  END
> <minimizedAffinity>
-9.48464

$$$$
mol_91896025_5


 30 34  0  0  0  0  0  0  0  0999 V2000
    4.1596   -3.7191  -23.1117 N   0  0  0  0  0  0  0  0  0  0  0  0
    2.7929   -3.7870  -23.0886 C   0  0  0  0  0  0  0  0  0  0  0  0
    2.4083   -3.3043  -21.8570 C   0  0  0  0  0  0  0  0  0  0  0  0
    3.6281   -3.0253  -21.1709 C   0  0  0  0  0  0  0  0  0  0  0  0
    4.6846   -3.2659  -21.9611 N   0  0  0  0  0  0  0  0  0  0  0  0
    1.0328   -3.0927  -21.4513 C   0  0  0  0  0  0  0  0  0  0  0  0
    0.5403   -1.8007  -21.2291 C   0  0  0  0  0  0  0  0  0  0  0  0
   -0.8080   -1.6518  -20.9410 C   0  0  0  0  0  0  0  0  0  0  0  0
   -1.6602   -2.7615  -20.8427 C   0  0  0  0  0  0  0  0  0  0  0  0
   -1.1788   -4.0468  -21.0284 C   0  0  0  0  0  0  0  0  0  0  0  0
    0.1732   -4.2065  -21.3368 C   0  0  0  0  0  0  0  0  0  0  0  0
   -3.0662   -2.3341  -20.5183 C   0  0  0  0  0  0  0  0  0  0  0  0
   -3.0069   -0.8441  -20.9087 C   0  0  0  0  0  0  0  0  0  0  0  0
   -1.5594   -0.3853  -20.6678 C   0  0  0  0  0  0  0  0  0  0  0  0
   -3.3801   -2.6096  -19.0796 N   0  0  0  0  0  0  0  0  0  0  0  0
   -3.7616   -3.7633  -18.8562 O   0  0  0  0  0  0  0  0  0  0  0  0
    3.4035   -5.1649  -25.9382 C   0  0  0  0  0  0  0  0  0  0  0  0
    4.3352   -3.9878  -25.6285 C   0  0  0  0  0  0  0  0  0  0  0  0
    5.0166   -4.0713  -24.2449 C   0  0  0  0  0  0  0  0  0  0  0  0
    5.6673   -5.4476  -24.0505 C   0  0  0  0  0  0  0  0  0  0  0  0
    4.6783   -6.5873  -24.2840 C   0  0  0  0  0  0  0  0  0  0  0  0
    4.0660   -6.5121  -25.6802 C   0  0  0  0  0  0  0  0  0  0  0  0
    5.3565   -7.8311  -24.1273 O   0  0  0  0  0  0  0  0  0  0  0  0
    5.9988   -7.9247  -24.8512 H   0  0  0  0  0  0  0  0  0  0  0  0
    3.8050   -2.5304  -19.8088 C   0  0  0  0  0  0  0  0  0  0  0  0
    5.0337   -2.0087  -19.4046 C   0  0  0  0  0  0  0  0  0  0  0  0
    5.1427   -1.5124  -18.1173 C   0  0  0  0  0  0  0  0  0  0  0  0
    4.1302   -1.5097  -17.2230 N   0  0  0  0  0  0  0  0  0  0  0  0
    2.9577   -2.0386  -17.6319 C   0  0  0  0  0  0  0  0  0  0  0  0
    2.7472   -2.5561  -18.8978 C   0  0  0  0  0  0  0  0  0  0  0  0
 17 18  1  0  0  0
 18 19  1  0  0  0
 19 20  1  0  0  0
 20 21  1  0  0  0
 21 22  1  0  0  0
 17 22  1  0  0  0
 21 23  1  0  0  0
 19  1  1  0  0  0
  1  2  1  0  0  0
  2  3  2  0  0  0
  3  4  1  0  0  0
  4  5  2  0  0  0
  1  5  1  0  0  0
  4 25  1  0  0  0
 25 26  2  0  0  0
 26 27  1  0  0  0
 27 28  2  0  0  0
 28 29  1  0  0  0
 29 30  2  0  0  0
 25 30  1  0  0  0
  3  6  1  0  0  0
  6  7  2  0  0  0
  7  8  1  0  0  0
  8  9  2  0  0  0
  9 10  1  0  0  0
 10 11  2  0  0  0
  6 11  1  0  0  0
  9 12  1  0  0  0
 12 13  1  0  0  0
 13 14  1  0  0  0
  8 14  1  0  0  0
 12 15  1  0  0  0
 15 16  2  0  0  0
 23 24  1  0  0  0
M  END
> <minimizedAffinity>
-11.05601

$$$$
mol_91896025_5


 30 34  0  0  0  0  0  0  0  0999 V2000
    5.5726   -3.1652  -21.7148 N   0  0  0  0  0  0  0  0  0  0  0  0
    4.3913   -2.6976  -21.2062 C   0  0  0  0  0  0  0  0  0  0  0  0
    3.3941   -3.3335  -21.9126 C   0  0  0  0  0  0  0  0  0  0  0  0
    4.0758   -4.1282  -22.8822 C   0  0  0  0  0  0  0  0  0  0  0  0
    5.4046   -4.0272  -22.7314 N   0  0  0  0  0  0  0  0  0  0  0  0
    1.9789   -3.2159  -21.6215 C   0  0  0  0  0  0  0  0  0  0  0  0
    1.4710   -2.0843  -20.9714 C   0  0  0  0  0  0  0  0  0  0  0  0
    0.0977   -1.9806  -20.8090 C   0  0  0  0  0  0  0  0  0  0  0  0
   -0.7681   -2.9905  -21.2536 C   0  0  0  0  0  0  0  0  0  0  0  0
   -0.2760   -4.1295  -21.8690 C   0  0  0  0  0  0  0  0  0  0  0  0
    1.1036   -4.2355  -22.0538 C   0  0  0  0  0  0  0  0  0  0  0  0
   -2.2013   -2.6412  -20.9559 C   0  0  0  0  0  0  0  0  0  0  0  0
   -2.0805   -1.1224  -20.7225 C   0  0  0  0  0  0  0  0  0  0  0  0
   -0.6736   -0.8772  -20.1528 C   0  0  0  0  0  0  0  0  0  0  0  0
   -2.7030   -3.4331  -19.7873 N   0  0  0  0  0  0  0  0  0  0  0  0
   -3.8877   -3.7722  -19.8762 O   0  0  0  0  0  0  0  0  0  0  0  0
    7.5357   -4.7528  -19.6468 C   0  0  0  0  0  0  0  0  0  0  0  0
    7.8387   -4.0191  -20.9580 C   0  0  0  0  0  0  0  0  0  0  0  0
    6.9107   -2.8159  -21.2352 C   0  0  0  0  0  0  0  0  0  0  0  0
    6.8454   -1.8961  -20.0084 C   0  0  0  0  0  0  0  0  0  0  0  0
    6.4544   -2.6556  -18.7428 C   0  0  0  0  0  0  0  0  0  0  0  0
    7.4234   -3.8012  -18.4626 C   0  0  0  0  0  0  0  0  0  0  0  0
    6.4525   -1.7524  -17.6402 O   0  0  0  0  0  0  0  0  0  0  0  0
    7.3675   -1.4700  -17.4721 H   0  0  0  0  0  0  0  0  0  0  0  0
    3.4991   -4.9767  -23.9210 C   0  0  0  0  0  0  0  0  0  0  0  0
    3.1847   -4.4428  -25.1705 C   0  0  0  0  0  0  0  0  0  0  0  0
    2.6797   -5.2937  -26.1379 C   0  0  0  0  0  0  0  0  0  0  0  0
    2.4647   -6.6131  -25.9424 N   0  0  0  0  0  0  0  0  0  0  0  0
    2.7579   -7.1010  -24.7187 C   0  0  0  0  0  0  0  0  0  0  0  0
    3.2695   -6.3339  -23.6870 C   0  0  0  0  0  0  0  0  0  0  0  0
 17 18  1  0  0  0
 18 19  1  0  0  0
 19 20  1  0  0  0
 20 21  1  0  0  0
 21 22  1  0  0  0
 17 22  1  0  0  0
 21 23  1  0  0  0
 19  1  1  0  0  0
  1  2  1  0  0  0
  2  3  2  0  0  0
  3  4  1  0  0  0
  4  5  2  0  0  0
  1  5  1  0  0  0
  4 25  1  0  0  0
 25 26  2  0  0  0
 26 27  1  0  0  0
 27 28  2  0  0  0
 28 29  1  0  0  0
 29 30  2  0  0  0
 25 30  1  0  0  0
  3  6  1  0  0  0
  6  7  2  0  0  0
  7  8  1  0  0  0
  8  9  2  0  0  0
  9 10  1  0  0  0
 10 11  2  0  0  0
  6 11  1  0  0  0
  9 12  1  0  0  0
 12 13  1  0  0  0
 13 14  1  0  0  0
  8 14  1  0  0  0
 12 15  1  0  0  0
 15 16  2  0  0  0
 23 24  1  0  0  0
M  END
> <minimizedAffinity>
-10.61854

$$$$
mol_91896025_5


 30 34  0  0  0  0  0  0  0  0999 V2000
    6.0561   -2.5425  -20.9439 N   0  0  0  0  0  0  0  0  0  0  0  0
    4.8849   -2.0487  -20.4365 C   0  0  0  0  0  0  0  0  0  0  0  0
    3.8861   -2.5108  -21.2649 C   0  0  0  0  0  0  0  0  0  0  0  0
    4.5622   -3.2311  -22.2946 C   0  0  0  0  0  0  0  0  0  0  0  0
    5.8840   -3.2558  -22.0692 N   0  0  0  0  0  0  0  0  0  0  0  0
    2.4689   -2.3178  -21.0288 C   0  0  0  0  0  0  0  0  0  0  0  0
    1.5365   -3.2840  -21.4264 C   0  0  0  0  0  0  0  0  0  0  0  0
    0.2059   -3.0930  -21.0855 C   0  0  0  0  0  0  0  0  0  0  0  0
   -0.2117   -1.9509  -20.3865 C   0  0  0  0  0  0  0  0  0  0  0  0
    0.6957   -0.9724  -20.0158 C   0  0  0  0  0  0  0  0  0  0  0  0
    2.0404   -1.1636  -20.3383 C   0  0  0  0  0  0  0  0  0  0  0  0
   -1.6966   -1.9803  -20.1444 C   0  0  0  0  0  0  0  0  0  0  0  0
   -1.9908   -3.4768  -20.3675 C   0  0  0  0  0  0  0  0  0  0  0  0
   -0.9627   -3.9769  -21.3955 C   0  0  0  0  0  0  0  0  0  0  0  0
   -2.3994   -1.0411  -21.0764 N   0  0  0  0  0  0  0  0  0  0  0  0
   -3.5463   -1.3888  -21.3764 O   0  0  0  0  0  0  0  0  0  0  0  0
    8.6026   -4.5823  -20.8714 C   0  0  0  0  0  0  0  0  0  0  0  0
    8.5315   -3.0711  -21.1176 C   0  0  0  0  0  0  0  0  0  0  0  0
    7.3865   -2.3630  -20.3604 C   0  0  0  0  0  0  0  0  0  0  0  0
    7.4058   -2.7512  -18.8757 C   0  0  0  0  0  0  0  0  0  0  0  0
    7.3873   -4.2652  -18.6788 C   0  0  0  0  0  0  0  0  0  0  0  0
    8.5633   -4.9306  -19.3889 C   0  0  0  0  0  0  0  0  0  0  0  0
    7.4473   -4.5537  -17.2843 O   0  0  0  0  0  0  0  0  0  0  0  0
    8.3201   -4.2837  -16.9515 H   0  0  0  0  0  0  0  0  0  0  0  0
    3.9855   -3.8958  -23.4596 C   0  0  0  0  0  0  0  0  0  0  0  0
    4.1380   -3.3435  -24.7312 C   0  0  0  0  0  0  0  0  0  0  0  0
    3.6110   -4.0302  -25.8109 C   0  0  0  0  0  0  0  0  0  0  0  0
    2.9489   -5.2031  -25.7069 N   0  0  0  0  0  0  0  0  0  0  0  0
    2.7970   -5.7063  -24.4638 C   0  0  0  0  0  0  0  0  0  0  0  0
    3.2893   -5.0984  -23.3224 C   0  0  0  0  0  0  0  0  0  0  0  0
 17 18  1  0  0  0
 18 19  1  0  0  0
 19 20  1  0  0  0
 20 21  1  0  0  0
 21 22  1  0  0  0
 17 22  1  0  0  0
 21 23  1  0  0  0
 19  1  1  0  0  0
  1  2  1  0  0  0
  2  3  2  0  0  0
  3  4  1  0  0  0
  4  5  2  0  0  0
  1  5  1  0  0  0
  4 25  1  0  0  0
 25 26  2  0  0  0
 26 27  1  0  0  0
 27 28  2  0  0  0
 28 29  1  0  0  0
 29 30  2  0  0  0
 25 30  1  0  0  0
  3  6  1  0  0  0
  6  7  2  0  0  0
  7  8  1  0  0  0
  8  9  2  0  0  0
  9 10  1  0  0  0
 10 11  2  0  0  0
  6 11  1  0  0  0
  9 12  1  0  0  0
 12 13  1  0  0  0
 13 14  1  0  0  0
  8 14  1  0  0  0
 12 15  1  0  0  0
 15 16  2  0  0  0
 23 24  1  0  0  0
M  END
> <minimizedAffinity>
-10.15808

$$$$
mol_91896028_6


 27 30  0  0  0  0  0  0  0  0999 V2000
    1.8602   -2.1748  -20.3440 C   0  0  0  0  0  0  0  0  0  0  0  0
    1.0067   -1.2096  -19.8617 C   0  0  0  0  0  0  0  0  0  0  0  0
   -0.0798   -1.2241  -20.6839 N   0  0  0  0  0  0  0  0  0  0  0  0
   -0.0038   -2.1498  -21.6608 N   0  0  0  0  0  0  0  0  0  0  0  0
    1.1924   -2.7334  -21.4751 C   0  0  0  0  0  0  0  0  0  0  0  0
    7.7961   -2.2434  -19.2854 C   0  0  0  0  0  0  0  0  0  0  0  0
    6.9142   -2.2824  -20.5442 C   0  0  0  0  0  0  0  0  0  0  0  0
    5.5542   -2.4476  -19.9390 C   0  0  0  0  0  0  0  0  0  0  0  0
    5.6496   -2.9209  -18.6231 C   0  0  0  0  0  0  0  0  0  0  0  0
    7.0891   -3.1121  -18.2266 C   0  0  0  0  0  0  0  0  0  0  0  0
    4.5117   -3.1669  -17.8709 C   0  0  0  0  0  0  0  0  0  0  0  0
    3.2652   -2.9237  -18.4548 C   0  0  0  0  0  0  0  0  0  0  0  0
    3.1655   -2.4552  -19.7799 C   0  0  0  0  0  0  0  0  0  0  0  0
    4.3227   -2.2253  -20.5356 C   0  0  0  0  0  0  0  0  0  0  0  0
    7.4502   -4.5671  -18.2414 N   0  0  0  0  0  0  0  0  0  0  0  0
    7.8606   -5.0011  -17.1598 O   0  0  0  0  0  0  0  0  0  0  0  0
    1.6617   -3.7879  -22.3662 C   0  0  0  0  0  0  0  0  0  0  0  0
    0.8783   -4.9168  -22.6102 C   0  0  0  0  0  0  0  0  0  0  0  0
    1.3912   -5.9039  -23.4332 C   0  0  0  0  0  0  0  0  0  0  0  0
    2.6089   -5.8414  -24.0124 N   0  0  0  0  0  0  0  0  0  0  0  0
    3.3415   -4.7326  -23.7706 C   0  0  0  0  0  0  0  0  0  0  0  0
    2.9161   -3.6886  -22.9684 C   0  0  0  0  0  0  0  0  0  0  0  0
   -1.2720   -0.4083  -20.5580 C   0  0  0  0  0  0  0  0  0  0  0  0
   -2.5769   -1.1388  -20.8777 C   0  0  0  0  0  0  0  0  0  0  0  0
   -2.9838   -2.2171  -19.8773 C   0  0  0  0  0  0  0  0  0  0  0  0
   -2.5451   -3.5004  -20.2950 O   0  0  0  0  0  0  0  0  0  0  0  0
   -3.2151   -3.8075  -20.9445 H   0  0  0  0  0  0  0  0  0  0  0  0
  6  7  1  0  0  0
  7  8  1  0  0  0
  8  9  2  0  0  0
  9 10  1  0  0  0
  6 10  1  0  0  0
 10 15  1  0  0  0
 15 16  2  0  0  0
  9 11  1  0  0  0
 11 12  2  0  0  0
 12 13  1  0  0  0
 13 14  2  0  0  0
  8 14  1  0  0  0
 13  1  1  0  0  0
  1  2  2  0  0  0
  2  3  1  0  0  0
  3  4  1  0  0  0
  4  5  2  0  0  0
  1  5  1  0  0  0
  5 17  1  0  0  0
 17 18  2  0  0  0
 18 19  1  0  0  0
 19 20  2  0  0  0
 20 21  1  0  0  0
 21 22  2  0  0  0
 17 22  1  0  0  0
  3 23  1  0  0  0
 23 24  1  0  0  0
 24 25  1  0  0  0
 25 26  1  0  0  0
 26 27  1  0  0  0
M  END
> <minimizedAffinity>
-9.56233

$$$$
mol_91896028_6


 27 30  0  0  0  0  0  0  0  0999 V2000
    1.0089   -2.5597  -21.3539 C   0  0  0  0  0  0  0  0  0  0  0  0
   -0.2643   -2.1180  -21.6308 C   0  0  0  0  0  0  0  0  0  0  0  0
   -0.5868   -1.2507  -20.6304 N   0  0  0  0  0  0  0  0  0  0  0  0
    0.3993   -1.0789  -19.7277 N   0  0  0  0  0  0  0  0  0  0  0  0
    1.3837   -1.8905  -20.1501 C   0  0  0  0  0  0  0  0  0  0  0  0
    5.3224   -6.0289  -23.7452 C   0  0  0  0  0  0  0  0  0  0  0  0
    5.2151   -4.5498  -23.3392 C   0  0  0  0  0  0  0  0  0  0  0  0
    3.7534   -4.4400  -23.0321 C   0  0  0  0  0  0  0  0  0  0  0  0
    3.0412   -5.4949  -23.6193 C   0  0  0  0  0  0  0  0  0  0  0  0
    3.9676   -6.4117  -24.3724 C   0  0  0  0  0  0  0  0  0  0  0  0
    1.6649   -5.5873  -23.4832 C   0  0  0  0  0  0  0  0  0  0  0  0
    1.0046   -4.6059  -22.7385 C   0  0  0  0  0  0  0  0  0  0  0  0
    1.7165   -3.5399  -22.1533 C   0  0  0  0  0  0  0  0  0  0  0  0
    3.1056   -3.4487  -22.3113 C   0  0  0  0  0  0  0  0  0  0  0  0
    3.8525   -6.1791  -25.8490 N   0  0  0  0  0  0  0  0  0  0  0  0
    3.0944   -6.9626  -26.4305 O   0  0  0  0  0  0  0  0  0  0  0  0
    2.6330   -2.0079  -19.4075 C   0  0  0  0  0  0  0  0  0  0  0  0
    3.7411   -1.2310  -19.7483 C   0  0  0  0  0  0  0  0  0  0  0  0
    4.9125   -1.4129  -19.0344 C   0  0  0  0  0  0  0  0  0  0  0  0
    5.0485   -2.3021  -18.0280 N   0  0  0  0  0  0  0  0  0  0  0  0
    3.9576   -3.0322  -17.7096 C   0  0  0  0  0  0  0  0  0  0  0  0
    2.7403   -2.9206  -18.3580 C   0  0  0  0  0  0  0  0  0  0  0  0
   -1.8170   -0.4935  -20.5039 C   0  0  0  0  0  0  0  0  0  0  0  0
   -3.0865   -1.2921  -20.8019 C   0  0  0  0  0  0  0  0  0  0  0  0
   -3.5313   -2.2478  -19.6983 C   0  0  0  0  0  0  0  0  0  0  0  0
   -3.0344   -3.5585  -19.9196 O   0  0  0  0  0  0  0  0  0  0  0  0
   -3.6524   -3.9673  -20.5645 H   0  0  0  0  0  0  0  0  0  0  0  0
  6  7  1  0  0  0
  7  8  1  0  0  0
  8  9  2  0  0  0
  9 10  1  0  0  0
  6 10  1  0  0  0
 10 15  1  0  0  0
 15 16  2  0  0  0
  9 11  1  0  0  0
 11 12  2  0  0  0
 12 13  1  0  0  0
 13 14  2  0  0  0
  8 14  1  0  0  0
 13  1  1  0  0  0
  1  2  2  0  0  0
  2  3  1  0  0  0
  3  4  1  0  0  0
  4  5  2  0  0  0
  1  5  1  0  0  0
  5 17  1  0  0  0
 17 18  2  0  0  0
 18 19  1  0  0  0
 19 20  2  0  0  0
 20 21  1  0  0  0
 21 22  2  0  0  0
 17 22  1  0  0  0
  3 23  1  0  0  0
 23 24  1  0  0  0
 24 25  1  0  0  0
 25 26  1  0  0  0
 26 27  1  0  0  0
M  END
> <minimizedAffinity>
-9.30930

$$$$
mol_91896028_6


 27 30  0  0  0  0  0  0  0  0999 V2000
    2.8011   -2.8282  -21.4597 C   0  0  0  0  0  0  0  0  0  0  0  0
    3.6438   -2.1287  -20.6271 C   0  0  0  0  0  0  0  0  0  0  0  0
    4.9011   -2.3239  -21.1149 N   0  0  0  0  0  0  0  0  0  0  0  0
    4.9357   -3.0880  -22.2247 N   0  0  0  0  0  0  0  0  0  0  0  0
    3.6516   -3.4202  -22.4414 C   0  0  0  0  0  0  0  0  0  0  0  0
   -3.0586   -1.4899  -20.9783 C   0  0  0  0  0  0  0  0  0  0  0  0
   -1.7493   -0.8275  -20.5191 C   0  0  0  0  0  0  0  0  0  0  0  0
   -0.7543   -1.8985  -20.8444 C   0  0  0  0  0  0  0  0  0  0  0  0
   -1.3898   -3.1390  -20.9935 C   0  0  0  0  0  0  0  0  0  0  0  0
   -2.8747   -3.0077  -20.7843 C   0  0  0  0  0  0  0  0  0  0  0  0
   -0.6605   -4.2826  -21.2792 C   0  0  0  0  0  0  0  0  0  0  0  0
    0.7251   -4.1671  -21.4227 C   0  0  0  0  0  0  0  0  0  0  0  0
    1.3680   -2.9231  -21.2658 C   0  0  0  0  0  0  0  0  0  0  0  0
    0.6217   -1.7770  -20.9615 C   0  0  0  0  0  0  0  0  0  0  0  0
   -3.2650   -3.5371  -19.4370 N   0  0  0  0  0  0  0  0  0  0  0  0
   -4.4221   -3.9659  -19.3739 O   0  0  0  0  0  0  0  0  0  0  0  0
    3.2747   -4.2804  -23.5568 C   0  0  0  0  0  0  0  0  0  0  0  0
    2.9603   -5.6238  -23.3471 C   0  0  0  0  0  0  0  0  0  0  0  0
    2.6482   -6.4024  -24.4476 C   0  0  0  0  0  0  0  0  0  0  0  0
    2.6334   -5.9396  -25.7155 N   0  0  0  0  0  0  0  0  0  0  0  0
    2.9287   -4.6330  -25.8897 C   0  0  0  0  0  0  0  0  0  0  0  0
    3.2475   -3.7711  -24.8552 C   0  0  0  0  0  0  0  0  0  0  0  0
    6.1293   -1.7532  -20.5966 C   0  0  0  0  0  0  0  0  0  0  0  0
    6.9812   -2.7217  -19.7751 C   0  0  0  0  0  0  0  0  0  0  0  0
    6.4981   -2.9680  -18.3486 C   0  0  0  0  0  0  0  0  0  0  0  0
    6.0933   -1.7593  -17.7250 O   0  0  0  0  0  0  0  0  0  0  0  0
    6.9217   -1.3400  -17.4043 H   0  0  0  0  0  0  0  0  0  0  0  0
  6  7  1  0  0  0
  7  8  1  0  0  0
  8  9  2  0  0  0
  9 10  1  0  0  0
  6 10  1  0  0  0
 10 15  1  0  0  0
 15 16  2  0  0  0
  9 11  1  0  0  0
 11 12  2  0  0  0
 12 13  1  0  0  0
 13 14  2  0  0  0
  8 14  1  0  0  0
 13  1  1  0  0  0
  1  2  2  0  0  0
  2  3  1  0  0  0
  3  4  1  0  0  0
  4  5  2  0  0  0
  1  5  1  0  0  0
  5 17  1  0  0  0
 17 18  2  0  0  0
 18 19  1  0  0  0
 19 20  2  0  0  0
 20 21  1  0  0  0
 21 22  2  0  0  0
 17 22  1  0  0  0
  3 23  1  0  0  0
 23 24  1  0  0  0
 24 25  1  0  0  0
 25 26  1  0  0  0
 26 27  1  0  0  0
M  END
> <minimizedAffinity>
-9.12752

$$$$
mol_11624965_7


 29 33  0  0  0  0  0  0  0  0999 V2000
    5.2706   -2.5371  -20.9663 N   0  0  0  0  0  0  0  0  0  0  0  0
    4.0090   -2.1713  -20.5839 C   0  0  0  0  0  0  0  0  0  0  0  0
    3.1471   -2.8127  -21.4472 C   0  0  0  0  0  0  0  0  0  0  0  0
    3.9895   -3.4990  -22.3666 C   0  0  0  0  0  0  0  0  0  0  0  0
    5.2806   -3.3256  -22.0539 N   0  0  0  0  0  0  0  0  0  0  0  0
    1.7070   -2.8163  -21.2967 C   0  0  0  0  0  0  0  0  0  0  0  0
    1.0475   -1.6060  -21.0202 C   0  0  0  0  0  0  0  0  0  0  0  0
   -0.3318   -1.6096  -20.8827 C   0  0  0  0  0  0  0  0  0  0  0  0
   -1.0354   -2.8002  -21.0095 C   0  0  0  0  0  0  0  0  0  0  0  0
   -0.4179   -4.0096  -21.2776 C   0  0  0  0  0  0  0  0  0  0  0  0
    0.9722   -4.0116  -21.4273 C   0  0  0  0  0  0  0  0  0  0  0  0
   -2.4478   -2.5123  -20.8213 C   0  0  0  0  0  0  0  0  0  0  0  0
   -3.3717   -3.4196  -20.8651 N   0  0  0  0  0  0  0  0  0  0  0  0
   -4.6299   -2.8449  -20.6534 O   0  0  0  0  0  0  0  0  0  0  0  0
   -2.6358   -1.0322  -20.5838 C   0  0  0  0  0  0  0  0  0  0  0  0
   -1.2185   -0.4401  -20.5962 C   0  0  0  0  0  0  0  0  0  0  0  0
   -5.2228   -3.6176  -20.7034 H   0  0  0  0  0  0  0  0  0  0  0  0
    6.3396   -2.0676  -18.7774 C   0  0  0  0  0  0  0  0  0  0  0  0
    6.2803   -3.4513  -18.1472 C   0  0  0  0  0  0  0  0  0  0  0  0
    7.4715   -4.1738  -18.4497 O   0  0  0  0  0  0  0  0  0  0  0  0
    7.6100   -4.4166  -19.8505 C   0  0  0  0  0  0  0  0  0  0  0  0
    7.7047   -3.1000  -20.6161 C   0  0  0  0  0  0  0  0  0  0  0  0
    6.5209   -2.1676  -20.2989 C   0  0  0  0  0  0  0  0  0  0  0  0
    3.6106   -4.3126  -23.5115 C   0  0  0  0  0  0  0  0  0  0  0  0
    3.5590   -5.7013  -23.3954 C   0  0  0  0  0  0  0  0  0  0  0  0
    3.1983   -6.4352  -24.5107 C   0  0  0  0  0  0  0  0  0  0  0  0
    2.9017   -5.8851  -25.7083 N   0  0  0  0  0  0  0  0  0  0  0  0
    2.9759   -4.5392  -25.7959 C   0  0  0  0  0  0  0  0  0  0  0  0
    3.3155   -3.7159  -24.7369 C   0  0  0  0  0  0  0  0  0  0  0  0
 18 19  1  0  0  0
 19 20  1  0  0  0
 20 21  1  0  0  0
 21 22  1  0  0  0
 22 23  1  0  0  0
 18 23  1  0  0  0
 23  1  1  0  0  0
  1  2  1  0  0  0
  2  3  2  0  0  0
  3  4  1  0  0  0
  4  5  2  0  0  0
  1  5  1  0  0  0
  4 24  1  0  0  0
 24 25  2  0  0  0
 25 26  1  0  0  0
 26 27  2  0  0  0
 27 28  1  0  0  0
 28 29  2  0  0  0
 24 29  1  0  0  0
  3  6  1  0  0  0
  6  7  2  0  0  0
  7  8  1  0  0  0
  8  9  2  0  0  0
  9 10  1  0  0  0
 10 11  2  0  0  0
  6 11  1  0  0  0
  9 12  1  0  0  0
 12 13  2  0  0  0
 13 14  1  0  0  0
 12 15  1  0  0  0
 15 16  1  0  0  0
  8 16  1  0  0  0
 14 17  1  0  0  0
M  END
> <minimizedAffinity>
-10.50092

$$$$
mol_11624965_7


 29 33  0  0  0  0  0  0  0  0999 V2000
    5.9256   -2.6563  -19.8017 N   0  0  0  0  0  0  0  0  0  0  0  0
    4.6778   -2.1792  -19.5061 C   0  0  0  0  0  0  0  0  0  0  0  0
    3.9006   -2.4284  -20.6166 C   0  0  0  0  0  0  0  0  0  0  0  0
    4.7894   -3.0061  -21.5664 C   0  0  0  0  0  0  0  0  0  0  0  0
    6.0178   -3.1441  -21.0499 N   0  0  0  0  0  0  0  0  0  0  0  0
    2.4692   -2.2155  -20.6653 C   0  0  0  0  0  0  0  0  0  0  0  0
    1.6121   -3.3284  -20.6102 C   0  0  0  0  0  0  0  0  0  0  0  0
    0.2419   -3.1228  -20.6504 C   0  0  0  0  0  0  0  0  0  0  0  0
   -0.2601   -1.8320  -20.7534 C   0  0  0  0  0  0  0  0  0  0  0  0
    0.5547   -0.7147  -20.8136 C   0  0  0  0  0  0  0  0  0  0  0  0
    1.9376   -0.9141  -20.7636 C   0  0  0  0  0  0  0  0  0  0  0  0
   -1.7113   -1.9121  -20.7735 C   0  0  0  0  0  0  0  0  0  0  0  0
   -2.4807   -0.8748  -20.8768 N   0  0  0  0  0  0  0  0  0  0  0  0
   -3.8254   -1.2618  -20.8642 O   0  0  0  0  0  0  0  0  0  0  0  0
   -2.1407   -3.3554  -20.6505 C   0  0  0  0  0  0  0  0  0  0  0  0
   -0.8335   -4.1604  -20.5989 C   0  0  0  0  0  0  0  0  0  0  0  0
   -4.2886   -0.4082  -20.9530 H   0  0  0  0  0  0  0  0  0  0  0  0
    7.3139   -4.0942  -18.3323 C   0  0  0  0  0  0  0  0  0  0  0  0
    7.9609   -4.9963  -19.3728 C   0  0  0  0  0  0  0  0  0  0  0  0
    9.1972   -4.4316  -19.8032 O   0  0  0  0  0  0  0  0  0  0  0  0
    9.0126   -3.1812  -20.4686 C   0  0  0  0  0  0  0  0  0  0  0  0
    8.3835   -2.1598  -19.5255 C   0  0  0  0  0  0  0  0  0  0  0  0
    7.0790   -2.6868  -18.8996 C   0  0  0  0  0  0  0  0  0  0  0  0
    4.5090   -3.4356  -22.9277 C   0  0  0  0  0  0  0  0  0  0  0  0
    5.1655   -2.8324  -24.0000 C   0  0  0  0  0  0  0  0  0  0  0  0
    4.8645   -3.2694  -25.2772 C   0  0  0  0  0  0  0  0  0  0  0  0
    3.9649   -4.2403  -25.5464 N   0  0  0  0  0  0  0  0  0  0  0  0
    3.3324   -4.7952  -24.4897 C   0  0  0  0  0  0  0  0  0  0  0  0
    3.5704   -4.4370  -23.1745 C   0  0  0  0  0  0  0  0  0  0  0  0
 18 19  1  0  0  0
 19 20  1  0  0  0
 20 21  1  0  0  0
 21 22  1  0  0  0
 22 23  1  0  0  0
 18 23  1  0  0  0
 23  1  1  0  0  0
  1  2  1  0  0  0
  2  3  2  0  0  0
  3  4  1  0  0  0
  4  5  2  0  0  0
  1  5  1  0  0  0
  4 24  1  0  0  0
 24 25  2  0  0  0
 25 26  1  0  0  0
 26 27  2  0  0  0
 27 28  1  0  0  0
 28 29  2  0  0  0
 24 29  1  0  0  0
  3  6  1  0  0  0
  6  7  2  0  0  0
  7  8  1  0  0  0
  8  9  2  0  0  0
  9 10  1  0  0  0
 10 11  2  0  0  0
  6 11  1  0  0  0
  9 12  1  0  0  0
 12 13  2  0  0  0
 13 14  1  0  0  0
 12 15  1  0  0  0
 15 16  1  0  0  0
  8 16  1  0  0  0
 14 17  1  0  0  0
M  END
> <minimizedAffinity>
-9.64247

$$$$
mol_11624965_7


 29 33  0  0  0  0  0  0  0  0999 V2000
    7.0899   -4.2753  -20.5334 N   0  0  0  0  0  0  0  0  0  0  0  0
    6.1629   -3.3973  -20.0420 C   0  0  0  0  0  0  0  0  0  0  0  0
    5.2090   -3.2579  -21.0270 C   0  0  0  0  0  0  0  0  0  0  0  0
    5.6822   -4.0473  -22.1126 C   0  0  0  0  0  0  0  0  0  0  0  0
    6.8263   -4.6660  -21.7914 N   0  0  0  0  0  0  0  0  0  0  0  0
    3.9688   -2.5309  -20.8536 C   0  0  0  0  0  0  0  0  0  0  0  0
    2.7995   -3.0235  -21.4589 C   0  0  0  0  0  0  0  0  0  0  0  0
    1.6116   -2.3302  -21.2868 C   0  0  0  0  0  0  0  0  0  0  0  0
    1.5957   -1.1636  -20.5335 C   0  0  0  0  0  0  0  0  0  0  0  0
    2.7284   -0.6486  -19.9272 C   0  0  0  0  0  0  0  0  0  0  0  0
    3.9281   -1.3483  -20.0884 C   0  0  0  0  0  0  0  0  0  0  0  0
    0.2346   -0.6534  -20.5198 C   0  0  0  0  0  0  0  0  0  0  0  0
   -0.1116    0.4363  -19.9104 N   0  0  0  0  0  0  0  0  0  0  0  0
   -1.4823    0.6691  -20.0686 O   0  0  0  0  0  0  0  0  0  0  0  0
   -0.6629   -1.5836  -21.3018 C   0  0  0  0  0  0  0  0  0  0  0  0
    0.2665   -2.6839  -21.8359 C   0  0  0  0  0  0  0  0  0  0  0  0
   -1.6097    1.5031  -19.5795 H   0  0  0  0  0  0  0  0  0  0  0  0
    9.4374   -5.0424  -20.7675 C   0  0  0  0  0  0  0  0  0  0  0  0
   10.1122   -3.7314  -21.1433 C   0  0  0  0  0  0  0  0  0  0  0  0
   10.5637   -3.0635  -19.9675 O   0  0  0  0  0  0  0  0  0  0  0  0
    9.4805   -2.6854  -19.1165 C   0  0  0  0  0  0  0  0  0  0  0  0
    8.7179   -3.9181  -18.6396 C   0  0  0  0  0  0  0  0  0  0  0  0
    8.2565   -4.7963  -19.8174 C   0  0  0  0  0  0  0  0  0  0  0  0
    5.0835   -4.2384  -23.4247 C   0  0  0  0  0  0  0  0  0  0  0  0
    4.4777   -5.4526  -23.7462 C   0  0  0  0  0  0  0  0  0  0  0  0
    3.9254   -5.5914  -25.0065 C   0  0  0  0  0  0  0  0  0  0  0  0
    3.9467   -4.6219  -25.9468 N   0  0  0  0  0  0  0  0  0  0  0  0
    4.5544   -3.4625  -25.6134 C   0  0  0  0  0  0  0  0  0  0  0  0
    5.1263   -3.2206  -24.3769 C   0  0  0  0  0  0  0  0  0  0  0  0
 18 19  1  0  0  0
 19 20  1  0  0  0
 20 21  1  0  0  0
 21 22  1  0  0  0
 22 23  1  0  0  0
 18 23  1  0  0  0
 23  1  1  0  0  0
  1  2  1  0  0  0
  2  3  2  0  0  0
  3  4  1  0  0  0
  4  5  2  0  0  0
  1  5  1  0  0  0
  4 24  1  0  0  0
 24 25  2  0  0  0
 25 26  1  0  0  0
 26 27  2  0  0  0
 27 28  1  0  0  0
 28 29  2  0  0  0
 24 29  1  0  0  0
  3  6  1  0  0  0
  6  7  2  0  0  0
  7  8  1  0  0  0
  8  9  2  0  0  0
  9 10  1  0  0  0
 10 11  2  0  0  0
  6 11  1  0  0  0
  9 12  1  0  0  0
 12 13  2  0  0  0
 13 14  1  0  0  0
 12 15  1  0  0  0
 15 16  1  0  0  0
  8 16  1  0  0  0
 14 17  1  0  0  0
M  END
> <minimizedAffinity>
-9.43660

$$$$
mol_54586539_8


 32 37  0  0  0  0  0  0  0  0999 V2000
    5.9850   -3.1463  -19.9593 N   0  0  0  0  0  0  0  0  0  0  0  0
    4.7790   -2.6093  -19.6035 C   0  0  0  0  0  0  0  0  0  0  0  0
    3.9539   -2.7274  -20.7039 C   0  0  0  0  0  0  0  0  0  0  0  0
    4.7995   -3.2777  -21.7199 C   0  0  0  0  0  0  0  0  0  0  0  0
    6.0306   -3.5197  -21.2465 N   0  0  0  0  0  0  0  0  0  0  0  0
    2.5285   -2.4120  -20.6856 C   0  0  0  0  0  0  0  0  0  0  0  0
    1.5650   -3.4370  -20.7169 C   0  0  0  0  0  0  0  0  0  0  0  0
    0.2214   -3.0886  -20.7187 C   0  0  0  0  0  0  0  0  0  0  0  0
   -0.1582   -1.7214  -20.6503 C   0  0  0  0  0  0  0  0  0  0  0  0
    0.7565   -0.6990  -20.6300 C   0  0  0  0  0  0  0  0  0  0  0  0
    2.1071   -1.0573  -20.6691 C   0  0  0  0  0  0  0  0  0  0  0  0
   -1.5751   -1.7356  -20.6544 C   0  0  0  0  0  0  0  0  0  0  0  0
   -2.0534   -3.0113  -20.7528 C   0  0  0  0  0  0  0  0  0  0  0  0
   -0.9850   -4.0473  -20.8135 C   0  0  0  0  0  0  0  0  0  0  0  0
   -3.4394   -2.8631  -20.7731 C   0  0  0  0  0  0  0  0  0  0  0  0
   -3.8015   -1.5711  -20.6562 N   0  0  0  0  0  0  0  0  0  0  0  0
   -2.6240   -0.8972  -20.5717 N   0  0  0  0  0  0  0  0  0  0  0  0
   -2.6413    0.1099  -20.4545 H   0  0  0  0  0  0  0  0  0  0  0  0
    9.0947   -2.3572  -20.3808 C   0  0  0  0  0  0  0  0  0  0  0  0
    8.2217   -2.2862  -19.1225 C   0  0  0  0  0  0  0  0  0  0  0  0
    7.1225   -3.3701  -19.0648 C   0  0  0  0  0  0  0  0  0  0  0  0
    7.7496   -4.7543  -19.2913 C   0  0  0  0  0  0  0  0  0  0  0  0
    8.5259   -4.8129  -20.6053 C   0  0  0  0  0  0  0  0  0  0  0  0
    9.6307   -3.7601  -20.6410 C   0  0  0  0  0  0  0  0  0  0  0  0
    9.0943   -6.1110  -20.7531 O   0  0  0  0  0  0  0  0  0  0  0  0
    9.7889   -6.2215  -20.0820 H   0  0  0  0  0  0  0  0  0  0  0  0
    4.4665   -3.6174  -23.0983 C   0  0  0  0  0  0  0  0  0  0  0  0
    3.5073   -4.5971  -23.3583 C   0  0  0  0  0  0  0  0  0  0  0  0
    3.1504   -4.8286  -24.6742 C   0  0  0  0  0  0  0  0  0  0  0  0
    3.6839   -4.1671  -25.7240 N   0  0  0  0  0  0  0  0  0  0  0  0
    4.6307   -3.2446  -25.4460 C   0  0  0  0  0  0  0  0  0  0  0  0
    5.0543   -2.9372  -24.1650 C   0  0  0  0  0  0  0  0  0  0  0  0
 19 20  1  0  0  0
 20 21  1  0  0  0
 21 22  1  0  0  0
 22 23  1  0  0  0
 23 24  1  0  0  0
 19 24  1  0  0  0
 23 25  1  0  0  0
 21  1  1  0  0  0
  1  2  1  0  0  0
  2  3  2  0  0  0
  3  4  1  0  0  0
  4  5  2  0  0  0
  1  5  1  0  0  0
  4 27  1  0  0  0
 27 28  2  0  0  0
 28 29  1  0  0  0
 29 30  2  0  0  0
 30 31  1  0  0  0
 31 32  2  0  0  0
 27 32  1  0  0  0
  3  6  1  0  0  0
  6  7  2  0  0  0
  7  8  1  0  0  0
  8  9  2  0  0  0
  9 10  1  0  0  0
 10 11  2  0  0  0
  6 11  1  0  0  0
  9 12  1  0  0  0
 12 13  2  0  0  0
 13 14  1  0  0  0
  8 14  1  0  0  0
 13 15  1  0  0  0
 15 16  2  0  0  0
 16 17  1  0  0  0
 12 17  1  0  0  0
 25 26  1  0  0  0
 17 18  1  0  0  0
M  END
> <minimizedAffinity>
-11.14773

$$$$
mol_54586539_8


 32 37  0  0  0  0  0  0  0  0999 V2000
   -1.6406   -2.3036  -20.4183 N   0  0  0  0  0  0  0  0  0  0  0  0
   -0.5173   -2.0853  -19.6701 C   0  0  0  0  0  0  0  0  0  0  0  0
    0.5175   -2.7354  -20.3121 C   0  0  0  0  0  0  0  0  0  0  0  0
   -0.1141   -3.4028  -21.4101 C   0  0  0  0  0  0  0  0  0  0  0  0
   -1.4265   -3.1303  -21.4523 N   0  0  0  0  0  0  0  0  0  0  0  0
    1.9178   -2.6179  -19.9163 C   0  0  0  0  0  0  0  0  0  0  0  0
    2.9336   -2.5247  -20.8857 C   0  0  0  0  0  0  0  0  0  0  0  0
    4.2525   -2.4354  -20.4623 C   0  0  0  0  0  0  0  0  0  0  0  0
    4.5523   -2.4004  -19.0742 C   0  0  0  0  0  0  0  0  0  0  0  0
    3.5862   -2.5006  -18.1051 C   0  0  0  0  0  0  0  0  0  0  0  0
    2.2643   -2.6307  -18.5405 C   0  0  0  0  0  0  0  0  0  0  0  0
    5.9635   -2.2907  -19.0085 C   0  0  0  0  0  0  0  0  0  0  0  0
    6.5151   -2.2914  -20.2583 C   0  0  0  0  0  0  0  0  0  0  0  0
    5.5115   -2.3891  -21.3546 C   0  0  0  0  0  0  0  0  0  0  0  0
    7.8883   -2.2078  -20.0329 C   0  0  0  0  0  0  0  0  0  0  0  0
    8.1707   -2.1224  -18.7189 N   0  0  0  0  0  0  0  0  0  0  0  0
    6.9563   -2.1635  -18.1096 N   0  0  0  0  0  0  0  0  0  0  0  0
    6.9105   -2.0922  -17.0990 H   0  0  0  0  0  0  0  0  0  0  0  0
   -4.1102   -3.3480  -18.6069 C   0  0  0  0  0  0  0  0  0  0  0  0
   -3.5631   -1.9294  -18.8037 C   0  0  0  0  0  0  0  0  0  0  0  0
   -2.9504   -1.6861  -20.2007 C   0  0  0  0  0  0  0  0  0  0  0  0
   -3.9547   -2.1054  -21.2853 C   0  0  0  0  0  0  0  0  0  0  0  0
   -4.3971   -3.5570  -21.1126 C   0  0  0  0  0  0  0  0  0  0  0  0
   -5.0305   -3.7814  -19.7418 C   0  0  0  0  0  0  0  0  0  0  0  0
   -5.3350   -3.8829  -22.1343 O   0  0  0  0  0  0  0  0  0  0  0  0
   -6.1529   -3.3828  -21.9729 H   0  0  0  0  0  0  0  0  0  0  0  0
    0.4905   -4.2467  -22.4341 C   0  0  0  0  0  0  0  0  0  0  0  0
    0.8743   -3.6888  -23.6543 C   0  0  0  0  0  0  0  0  0  0  0  0
    1.5274   -4.4982  -24.5658 C   0  0  0  0  0  0  0  0  0  0  0  0
    1.8071   -5.8013  -24.3469 N   0  0  0  0  0  0  0  0  0  0  0  0
    1.3989   -6.3231  -23.1697 C   0  0  0  0  0  0  0  0  0  0  0  0
    0.7423   -5.5972  -22.1916 C   0  0  0  0  0  0  0  0  0  0  0  0
 19 20  1  0  0  0
 20 21  1  0  0  0
 21 22  1  0  0  0
 22 23  1  0  0  0
 23 24  1  0  0  0
 19 24  1  0  0  0
 23 25  1  0  0  0
 21  1  1  0  0  0
  1  2  1  0  0  0
  2  3  2  0  0  0
  3  4  1  0  0  0
  4  5  2  0  0  0
  1  5  1  0  0  0
  4 27  1  0  0  0
 27 28  2  0  0  0
 28 29  1  0  0  0
 29 30  2  0  0  0
 30 31  1  0  0  0
 31 32  2  0  0  0
 27 32  1  0  0  0
  3  6  1  0  0  0
  6  7  2  0  0  0
  7  8  1  0  0  0
  8  9  2  0  0  0
  9 10  1  0  0  0
 10 11  2  0  0  0
  6 11  1  0  0  0
  9 12  1  0  0  0
 12 13  2  0  0  0
 13 14  1  0  0  0
  8 14  1  0  0  0
 13 15  1  0  0  0
 15 16  2  0  0  0
 16 17  1  0  0  0
 12 17  1  0  0  0
 25 26  1  0  0  0
 17 18  1  0  0  0
M  END
> <minimizedAffinity>
-10.97298

$$$$
mol_54586539_8


 32 37  0  0  0  0  0  0  0  0999 V2000
    5.6580   -3.1684  -21.8156 N   0  0  0  0  0  0  0  0  0  0  0  0
    4.4477   -2.7121  -21.3721 C   0  0  0  0  0  0  0  0  0  0  0  0
    3.4827   -3.4064  -22.0736 C   0  0  0  0  0  0  0  0  0  0  0  0
    4.2276   -4.2083  -22.9967 C   0  0  0  0  0  0  0  0  0  0  0  0
    5.5474   -4.0439  -22.8254 N   0  0  0  0  0  0  0  0  0  0  0  0
    2.0540   -3.3237  -21.7844 C   0  0  0  0  0  0  0  0  0  0  0  0
    1.5206   -2.2111  -21.1078 C   0  0  0  0  0  0  0  0  0  0  0  0
    0.1596   -2.1859  -20.8366 C   0  0  0  0  0  0  0  0  0  0  0  0
   -0.6720   -3.2512  -21.2742 C   0  0  0  0  0  0  0  0  0  0  0  0
   -0.1811   -4.3544  -21.9256 C   0  0  0  0  0  0  0  0  0  0  0  0
    1.1967   -4.3903  -22.1592 C   0  0  0  0  0  0  0  0  0  0  0  0
   -1.9760   -2.8940  -20.8498 C   0  0  0  0  0  0  0  0  0  0  0  0
   -1.9635   -1.7112  -20.1666 C   0  0  0  0  0  0  0  0  0  0  0  0
   -0.6103   -1.0988  -20.0561 C   0  0  0  0  0  0  0  0  0  0  0  0
   -3.2920   -1.5097  -19.7950 C   0  0  0  0  0  0  0  0  0  0  0  0
   -4.0897   -2.4930  -20.2538 N   0  0  0  0  0  0  0  0  0  0  0  0
   -3.2470   -3.3301  -20.9148 N   0  0  0  0  0  0  0  0  0  0  0  0
   -3.6283   -4.1503  -21.3734 H   0  0  0  0  0  0  0  0  0  0  0  0
    7.4470   -4.7952  -19.6654 C   0  0  0  0  0  0  0  0  0  0  0  0
    7.8732   -4.0264  -20.9214 C   0  0  0  0  0  0  0  0  0  0  0  0
    6.9647   -2.8218  -21.2530 C   0  0  0  0  0  0  0  0  0  0  0  0
    6.8210   -1.9264  -20.0127 C   0  0  0  0  0  0  0  0  0  0  0  0
    6.2972   -2.7092  -18.8104 C   0  0  0  0  0  0  0  0  0  0  0  0
    7.2176   -3.8784  -18.4696 C   0  0  0  0  0  0  0  0  0  0  0  0
    6.1989   -1.8331  -17.6911 O   0  0  0  0  0  0  0  0  0  0  0  0
    7.0970   -1.5823  -17.4162 H   0  0  0  0  0  0  0  0  0  0  0  0
    3.7315   -5.1475  -23.9956 C   0  0  0  0  0  0  0  0  0  0  0  0
    3.2968   -4.6759  -25.2350 C   0  0  0  0  0  0  0  0  0  0  0  0
    2.9195   -5.6019  -26.1903 C   0  0  0  0  0  0  0  0  0  0  0  0
    2.9385   -6.9374  -25.9897 N   0  0  0  0  0  0  0  0  0  0  0  0
    3.3359   -7.3654  -24.7717 C   0  0  0  0  0  0  0  0  0  0  0  0
    3.7357   -6.5210  -23.7510 C   0  0  0  0  0  0  0  0  0  0  0  0
 19 20  1  0  0  0
 20 21  1  0  0  0
 21 22  1  0  0  0
 22 23  1  0  0  0
 23 24  1  0  0  0
 19 24  1  0  0  0
 23 25  1  0  0  0
 21  1  1  0  0  0
  1  2  1  0  0  0
  2  3  2  0  0  0
  3  4  1  0  0  0
  4  5  2  0  0  0
  1  5  1  0  0  0
  4 27  1  0  0  0
 27 28  2  0  0  0
 28 29  1  0  0  0
 29 30  2  0  0  0
 30 31  1  0  0  0
 31 32  2  0  0  0
 27 32  1  0  0  0
  3  6  1  0  0  0
  6  7  2  0  0  0
  7  8  1  0  0  0
  8  9  2  0  0  0
  9 10  1  0  0  0
 10 11  2  0  0  0
  6 11  1  0  0  0
  9 12  1  0  0  0
 12 13  2  0  0  0
 13 14  1  0  0  0
  8 14  1  0  0  0
 13 15  1  0  0  0
 15 16  2  0  0  0
 16 17  1  0  0  0
 12 17  1  0  0  0
 25 26  1  0  0  0
 17 18  1  0  0  0
M  END
> <minimizedAffinity>
-10.82403

$$$$
mol_135438492_9


 27 30  0  0  0  0  0  0  0  0999 V2000
    2.9249   -3.2343  -21.9931 C   0  0  0  0  0  0  0  0  0  0  0  0
    3.9404   -2.8946  -21.1095 C   0  0  0  0  0  0  0  0  0  0  0  0
    5.1111   -3.1457  -21.7935 N   0  0  0  0  0  0  0  0  0  0  0  0
    4.9108   -3.6020  -23.0511 N   0  0  0  0  0  0  0  0  0  0  0  0
    3.5826   -3.6731  -23.1583 C   0  0  0  0  0  0  0  0  0  0  0  0
   -1.1418   -0.5294  -20.7643 C   0  0  0  0  0  0  0  0  0  0  0  0
   -2.5639   -1.0267  -20.4721 C   0  0  0  0  0  0  0  0  0  0  0  0
   -2.5013   -2.5286  -20.6355 C   0  0  0  0  0  0  0  0  0  0  0  0
   -3.4683   -3.3705  -20.4622 N   0  0  0  0  0  0  0  0  0  0  0  0
   -4.6373   -2.6983  -20.0855 O   0  0  0  0  0  0  0  0  0  0  0  0
   -1.1563   -2.9189  -21.0295 C   0  0  0  0  0  0  0  0  0  0  0  0
   -0.3814   -1.7695  -21.1055 C   0  0  0  0  0  0  0  0  0  0  0  0
    0.9575   -1.8602  -21.4468 C   0  0  0  0  0  0  0  0  0  0  0  0
    1.5112   -3.1260  -21.6980 C   0  0  0  0  0  0  0  0  0  0  0  0
    0.7040   -4.2799  -21.6321 C   0  0  0  0  0  0  0  0  0  0  0  0
   -0.6495   -4.1803  -21.2909 C   0  0  0  0  0  0  0  0  0  0  0  0
   -5.2736   -3.4291  -19.9778 H   0  0  0  0  0  0  0  0  0  0  0  0
    3.8698   -2.4303  -19.7272 C   0  0  0  0  0  0  0  0  0  0  0  0
    3.1054   -3.1138  -18.7840 C   0  0  0  0  0  0  0  0  0  0  0  0
    3.0694   -2.6281  -17.4887 C   0  0  0  0  0  0  0  0  0  0  0  0
    3.7532   -1.5403  -17.0771 N   0  0  0  0  0  0  0  0  0  0  0  0
    4.5073   -0.9110  -18.0037 C   0  0  0  0  0  0  0  0  0  0  0  0
    4.5978   -1.3118  -19.3259 C   0  0  0  0  0  0  0  0  0  0  0  0
    6.4777   -3.0611  -21.3014 C   0  0  0  0  0  0  0  0  0  0  0  0
    7.0112   -4.4010  -20.8112 C   0  0  0  0  0  0  0  0  0  0  0  0
    6.9028   -5.4086  -21.8145 O   0  0  0  0  0  0  0  0  0  0  0  0
    6.1737   -5.9962  -21.5514 H   0  0  0  0  0  0  0  0  0  0  0  0
  6  7  1  0  0  0
  7  8  1  0  0  0
  8  9  2  0  0  0
  9 10  1  0  0  0
  8 11  1  0  0  0
 11 12  2  0  0  0
  6 12  1  0  0  0
 12 13  1  0  0  0
 13 14  2  0  0  0
 14 15  1  0  0  0
 15 16  2  0  0  0
 11 16  1  0  0  0
 14  1  1  0  0  0
  1  2  2  0  0  0
  2  3  1  0  0  0
  3  4  1  0  0  0
  4  5  2  0  0  0
  1  5  1  0  0  0
  3 24  1  0  0  0
 24 25  1  0  0  0
 25 26  1  0  0  0
  2 18  1  0  0  0
 18 19  2  0  0  0
 19 20  1  0  0  0
 20 21  2  0  0  0
 21 22  1  0  0  0
 22 23  2  0  0  0
 18 23  1  0  0  0
 10 17  1  0  0  0
 26 27  1  0  0  0
M  END
> <minimizedAffinity>
-9.23855

$$$$
mol_135438492_9


 27 30  0  0  0  0  0  0  0  0999 V2000
    4.0246   -2.8776  -20.5398 C   0  0  0  0  0  0  0  0  0  0  0  0
    4.8340   -3.4065  -21.5361 C   0  0  0  0  0  0  0  0  0  0  0  0
    6.0736   -3.5556  -20.9508 N   0  0  0  0  0  0  0  0  0  0  0  0
    6.1034   -3.1769  -19.6526 N   0  0  0  0  0  0  0  0  0  0  0  0
    4.8625   -2.7472  -19.4157 C   0  0  0  0  0  0  0  0  0  0  0  0
    0.1904    0.3869  -20.4567 C   0  0  0  0  0  0  0  0  0  0  0  0
   -1.3022    0.1090  -20.6802 C   0  0  0  0  0  0  0  0  0  0  0  0
   -1.3950   -1.3773  -20.9421 C   0  0  0  0  0  0  0  0  0  0  0  0
   -2.4704   -2.0626  -21.1609 N   0  0  0  0  0  0  0  0  0  0  0  0
   -3.5947   -1.2290  -21.1238 O   0  0  0  0  0  0  0  0  0  0  0  0
   -0.0621   -1.9597  -20.9150 C   0  0  0  0  0  0  0  0  0  0  0  0
    0.8438   -0.9443  -20.6399 C   0  0  0  0  0  0  0  0  0  0  0  0
    2.1946   -1.2319  -20.5395 C   0  0  0  0  0  0  0  0  0  0  0  0
    2.6217   -2.5592  -20.7063 C   0  0  0  0  0  0  0  0  0  0  0  0
    1.6884   -3.5736  -21.0017 C   0  0  0  0  0  0  0  0  0  0  0  0
    0.3252   -3.2750  -21.1060 C   0  0  0  0  0  0  0  0  0  0  0  0
   -4.3244   -1.8541  -21.2889 H   0  0  0  0  0  0  0  0  0  0  0  0
    4.5341   -3.7058  -22.9331 C   0  0  0  0  0  0  0  0  0  0  0  0
    4.9742   -2.8642  -23.9526 C   0  0  0  0  0  0  0  0  0  0  0  0
    4.6583   -3.1921  -25.2594 C   0  0  0  0  0  0  0  0  0  0  0  0
    3.9666   -4.2967  -25.6085 N   0  0  0  0  0  0  0  0  0  0  0  0
    3.5742   -5.1096  -24.6043 C   0  0  0  0  0  0  0  0  0  0  0  0
    3.8299   -4.8613  -23.2664 C   0  0  0  0  0  0  0  0  0  0  0  0
    7.3197   -3.9741  -21.5746 C   0  0  0  0  0  0  0  0  0  0  0  0
    7.6063   -5.4576  -21.3805 C   0  0  0  0  0  0  0  0  0  0  0  0
    7.9363   -5.7562  -20.0257 O   0  0  0  0  0  0  0  0  0  0  0  0
    8.8941   -5.9226  -19.9952 H   0  0  0  0  0  0  0  0  0  0  0  0
  6  7  1  0  0  0
  7  8  1  0  0  0
  8  9  2  0  0  0
  9 10  1  0  0  0
  8 11  1  0  0  0
 11 12  2  0  0  0
  6 12  1  0  0  0
 12 13  1  0  0  0
 13 14  2  0  0  0
 14 15  1  0  0  0
 15 16  2  0  0  0
 11 16  1  0  0  0
 14  1  1  0  0  0
  1  2  2  0  0  0
  2  3  1  0  0  0
  3  4  1  0  0  0
  4  5  2  0  0  0
  1  5  1  0  0  0
  3 24  1  0  0  0
 24 25  1  0  0  0
 25 26  1  0  0  0
  2 18  1  0  0  0
 18 19  2  0  0  0
 19 20  1  0  0  0
 20 21  2  0  0  0
 21 22  1  0  0  0
 22 23  2  0  0  0
 18 23  1  0  0  0
 10 17  1  0  0  0
 26 27  1  0  0  0
M  END
> <minimizedAffinity>
-8.93797

$$$$
mol_135438492_9


 27 30  0  0  0  0  0  0  0  0999 V2000
    3.3551   -2.6315  -19.7921 C   0  0  0  0  0  0  0  0  0  0  0  0
    4.3273   -3.0328  -20.6983 C   0  0  0  0  0  0  0  0  0  0  0  0
    5.4891   -3.1257  -19.9615 N   0  0  0  0  0  0  0  0  0  0  0  0
    5.3197   -2.8301  -18.6524 N   0  0  0  0  0  0  0  0  0  0  0  0
    4.0273   -2.5111  -18.5607 C   0  0  0  0  0  0  0  0  0  0  0  0
   -0.5985    0.4134  -20.4725 C   0  0  0  0  0  0  0  0  0  0  0  0
   -2.0489    0.0327  -20.7985 C   0  0  0  0  0  0  0  0  0  0  0  0
   -2.0545   -1.4770  -20.8821 C   0  0  0  0  0  0  0  0  0  0  0  0
   -3.0740   -2.2390  -21.1141 N   0  0  0  0  0  0  0  0  0  0  0  0
   -4.2296   -1.4672  -21.2857 O   0  0  0  0  0  0  0  0  0  0  0  0
   -0.7082   -1.9811  -20.6585 C   0  0  0  0  0  0  0  0  0  0  0  0
    0.1237   -0.8938  -20.4277 C   0  0  0  0  0  0  0  0  0  0  0  0
    1.4684   -1.0961  -20.1665 C   0  0  0  0  0  0  0  0  0  0  0  0
    1.9638   -2.4094  -20.1272 C   0  0  0  0  0  0  0  0  0  0  0  0
    1.1066   -3.4995  -20.3809 C   0  0  0  0  0  0  0  0  0  0  0  0
   -0.2506   -3.2875  -20.6484 C   0  0  0  0  0  0  0  0  0  0  0  0
   -4.9132   -2.1451  -21.4397 H   0  0  0  0  0  0  0  0  0  0  0  0
    4.2359   -3.2634  -22.1370 C   0  0  0  0  0  0  0  0  0  0  0  0
    5.1600   -2.6935  -23.0102 C   0  0  0  0  0  0  0  0  0  0  0  0
    5.0247   -2.9405  -24.3651 C   0  0  0  0  0  0  0  0  0  0  0  0
    4.0605   -3.7238  -24.8913 N   0  0  0  0  0  0  0  0  0  0  0  0
    3.1933   -4.2856  -24.0219 C   0  0  0  0  0  0  0  0  0  0  0  0
    3.2381   -4.0887  -22.6522 C   0  0  0  0  0  0  0  0  0  0  0  0
    6.8356   -3.4084  -20.4348 C   0  0  0  0  0  0  0  0  0  0  0  0
    7.8308   -2.3152  -20.0671 C   0  0  0  0  0  0  0  0  0  0  0  0
    8.1934   -2.3765  -18.6893 O   0  0  0  0  0  0  0  0  0  0  0  0
    7.7461   -1.6370  -18.2432 H   0  0  0  0  0  0  0  0  0  0  0  0
  6  7  1  0  0  0
  7  8  1  0  0  0
  8  9  2  0  0  0
  9 10  1  0  0  0
  8 11  1  0  0  0
 11 12  2  0  0  0
  6 12  1  0  0  0
 12 13  1  0  0  0
 13 14  2  0  0  0
 14 15  1  0  0  0
 15 16  2  0  0  0
 11 16  1  0  0  0
 14  1  1  0  0  0
  1  2  2  0  0  0
  2  3  1  0  0  0
  3  4  1  0  0  0
  4  5  2  0  0  0
  1  5  1  0  0  0
  3 24  1  0  0  0
 24 25  1  0  0  0
 25 26  1  0  0  0
  2 18  1  0  0  0
 18 19  2  0  0  0
 19 20  1  0  0  0
 20 21  2  0  0  0
 21 22  1  0  0  0
 22 23  2  0  0  0
 18 23  1  0  0  0
 10 17  1  0  0  0
 26 27  1  0  0  0
M  END
> <minimizedAffinity>
-8.92166

$$$$
mol_11717001_10


 27 30  0  0  0  0  0  0  0  0999 V2000
    1.8371   -1.8910  -20.2276 C   0  0  0  0  0  0  0  0  0  0  0  0
    1.0080   -0.8965  -19.7611 C   0  0  0  0  0  0  0  0  0  0  0  0
   -0.0730   -0.8973  -20.5933 N   0  0  0  0  0  0  0  0  0  0  0  0
   -0.0014   -1.8175  -21.5793 N   0  0  0  0  0  0  0  0  0  0  0  0
    1.1520   -2.4613  -21.3430 C   0  0  0  0  0  0  0  0  0  0  0  0
    6.8436   -1.8509  -20.6874 C   0  0  0  0  0  0  0  0  0  0  0  0
    7.8899   -2.5179  -19.7838 C   0  0  0  0  0  0  0  0  0  0  0  0
    7.0952   -3.1955  -18.6912 C   0  0  0  0  0  0  0  0  0  0  0  0
    7.5617   -3.9138  -17.7192 N   0  0  0  0  0  0  0  0  0  0  0  0
    8.9563   -3.9958  -17.8013 O   0  0  0  0  0  0  0  0  0  0  0  0
    5.6791   -2.9254  -18.8786 C   0  0  0  0  0  0  0  0  0  0  0  0
    5.5398   -2.1495  -20.0211 C   0  0  0  0  0  0  0  0  0  0  0  0
    4.2783   -1.7688  -20.4445 C   0  0  0  0  0  0  0  0  0  0  0  0
    3.1561   -2.1894  -19.7093 C   0  0  0  0  0  0  0  0  0  0  0  0
    3.3193   -2.9635  -18.5439 C   0  0  0  0  0  0  0  0  0  0  0  0
    4.5977   -3.3407  -18.1196 C   0  0  0  0  0  0  0  0  0  0  0  0
    9.1780   -4.5554  -17.0342 H   0  0  0  0  0  0  0  0  0  0  0  0
    1.6068   -3.5696  -22.1735 C   0  0  0  0  0  0  0  0  0  0  0  0
    0.7331   -4.6127  -22.4886 C   0  0  0  0  0  0  0  0  0  0  0  0
    1.2314   -5.6952  -23.1902 C   0  0  0  0  0  0  0  0  0  0  0  0
    2.5165   -5.8007  -23.5887 N   0  0  0  0  0  0  0  0  0  0  0  0
    3.3354   -4.7689  -23.2874 C   0  0  0  0  0  0  0  0  0  0  0  0
    2.9332   -3.6403  -22.5942 C   0  0  0  0  0  0  0  0  0  0  0  0
   -1.2170   -0.0004  -20.5433 C   0  0  0  0  0  0  0  0  0  0  0  0
   -2.5252   -0.7461  -20.7869 C   0  0  0  0  0  0  0  0  0  0  0  0
   -2.5736   -1.9738  -20.0616 O   0  0  0  0  0  0  0  0  0  0  0  0
   -1.7073   -2.4161  -20.2062 H   0  0  0  0  0  0  0  0  0  0  0  0
  6  7  1  0  0  0
  7  8  1  0  0  0
  8  9  2  0  0  0
  9 10  1  0  0  0
  8 11  1  0  0  0
 11 12  2  0  0  0
  6 12  1  0  0  0
 12 13  1  0  0  0
 13 14  2  0  0  0
 14 15  1  0  0  0
 15 16  2  0  0  0
 11 16  1  0  0  0
 14  1  1  0  0  0
  1  2  2  0  0  0
  2  3  1  0  0  0
  3  4  1  0  0  0
  4  5  2  0  0  0
  1  5  1  0  0  0
  5 18  1  0  0  0
 18 19  2  0  0  0
 19 20  1  0  0  0
 20 21  2  0  0  0
 21 22  1  0  0  0
 22 23  2  0  0  0
 18 23  1  0  0  0
  3 24  1  0  0  0
 24 25  1  0  0  0
 25 26  1  0  0  0
 10 17  1  0  0  0
 26 27  1  0  0  0
M  END
> <minimizedAffinity>
-9.62253

$$$$
mol_11717001_10


 27 30  0  0  0  0  0  0  0  0999 V2000
    2.5289   -3.3181  -22.0753 C   0  0  0  0  0  0  0  0  0  0  0  0
    3.0040   -3.7361  -23.2974 C   0  0  0  0  0  0  0  0  0  0  0  0
    4.3567   -3.5675  -23.2443 N   0  0  0  0  0  0  0  0  0  0  0  0
    4.7970   -3.0569  -22.0741 N   0  0  0  0  0  0  0  0  0  0  0  0
    3.6859   -2.9342  -21.3318 C   0  0  0  0  0  0  0  0  0  0  0  0
   -1.5151   -0.5914  -20.8546 C   0  0  0  0  0  0  0  0  0  0  0  0
   -2.8823   -1.0822  -20.3588 C   0  0  0  0  0  0  0  0  0  0  0  0
   -2.7727   -2.5893  -20.3229 C   0  0  0  0  0  0  0  0  0  0  0  0
   -3.6798   -3.4276  -19.9318 N   0  0  0  0  0  0  0  0  0  0  0  0
   -4.8307   -2.7434  -19.5246 O   0  0  0  0  0  0  0  0  0  0  0  0
   -1.4627   -2.9951  -20.8051 C   0  0  0  0  0  0  0  0  0  0  0  0
   -0.7469   -1.8466  -21.1142 C   0  0  0  0  0  0  0  0  0  0  0  0
    0.5539   -1.9502  -21.5755 C   0  0  0  0  0  0  0  0  0  0  0  0
    1.1303   -3.2255  -21.7109 C   0  0  0  0  0  0  0  0  0  0  0  0
    0.3822   -4.3794  -21.4067 C   0  0  0  0  0  0  0  0  0  0  0  0
   -0.9336   -4.2672  -20.9452 C   0  0  0  0  0  0  0  0  0  0  0  0
   -5.4212   -3.4707  -19.2543 H   0  0  0  0  0  0  0  0  0  0  0  0
    3.7181   -2.4362  -19.9622 C   0  0  0  0  0  0  0  0  0  0  0  0
    4.6658   -1.4814  -19.5866 C   0  0  0  0  0  0  0  0  0  0  0  0
    4.7315   -1.1121  -18.2555 C   0  0  0  0  0  0  0  0  0  0  0  0
    3.9300   -1.6228  -17.2973 N   0  0  0  0  0  0  0  0  0  0  0  0
    3.0095   -2.5302  -17.6915 C   0  0  0  0  0  0  0  0  0  0  0  0
    2.8603   -2.9619  -18.9981 C   0  0  0  0  0  0  0  0  0  0  0  0
    5.3140   -3.8294  -24.3076 C   0  0  0  0  0  0  0  0  0  0  0  0
    4.7123   -4.7080  -25.3998 C   0  0  0  0  0  0  0  0  0  0  0  0
    4.7236   -4.0530  -26.6673 O   0  0  0  0  0  0  0  0  0  0  0  0
    4.3880   -3.1419  -26.5120 H   0  0  0  0  0  0  0  0  0  0  0  0
  6  7  1  0  0  0
  7  8  1  0  0  0
  8  9  2  0  0  0
  9 10  1  0  0  0
  8 11  1  0  0  0
 11 12  2  0  0  0
  6 12  1  0  0  0
 12 13  1  0  0  0
 13 14  2  0  0  0
 14 15  1  0  0  0
 15 16  2  0  0  0
 11 16  1  0  0  0
 14  1  1  0  0  0
  1  2  2  0  0  0
  2  3  1  0  0  0
  3  4  1  0  0  0
  4  5  2  0  0  0
  1  5  1  0  0  0
  5 18  1  0  0  0
 18 19  2  0  0  0
 19 20  1  0  0  0
 20 21  2  0  0  0
 21 22  1  0  0  0
 22 23  2  0  0  0
 18 23  1  0  0  0
  3 24  1  0  0  0
 24 25  1  0  0  0
 25 26  1  0  0  0
 10 17  1  0  0  0
 26 27  1  0  0  0
M  END
> <minimizedAffinity>
-9.59435

$$$$
mol_11717001_10


 27 30  0  0  0  0  0  0  0  0999 V2000
    3.2106   -2.8769  -21.3223 C   0  0  0  0  0  0  0  0  0  0  0  0
    4.0288   -2.4084  -20.3198 C   0  0  0  0  0  0  0  0  0  0  0  0
    5.2979   -2.7401  -20.6946 N   0  0  0  0  0  0  0  0  0  0  0  0
    5.3637   -3.4039  -21.8689 N   0  0  0  0  0  0  0  0  0  0  0  0
    4.0891   -3.4614  -22.2843 C   0  0  0  0  0  0  0  0  0  0  0  0
   -1.1001   -0.3751  -20.6608 C   0  0  0  0  0  0  0  0  0  0  0  0
   -2.5296   -0.9323  -20.6192 C   0  0  0  0  0  0  0  0  0  0  0  0
   -2.3809   -2.4207  -20.8362 C   0  0  0  0  0  0  0  0  0  0  0  0
   -3.3272   -3.3056  -20.8442 N   0  0  0  0  0  0  0  0  0  0  0  0
   -4.5655   -2.6950  -20.6161 O   0  0  0  0  0  0  0  0  0  0  0  0
   -0.9795   -2.7459  -21.0448 C   0  0  0  0  0  0  0  0  0  0  0  0
   -0.2493   -1.5693  -20.9491 C   0  0  0  0  0  0  0  0  0  0  0  0
    1.1279   -1.6014  -21.0842 C   0  0  0  0  0  0  0  0  0  0  0  0
    1.7630   -2.8361  -21.3056 C   0  0  0  0  0  0  0  0  0  0  0  0
    1.0029   -4.0168  -21.4151 C   0  0  0  0  0  0  0  0  0  0  0  0
   -0.3890   -3.9760  -21.2818 C   0  0  0  0  0  0  0  0  0  0  0  0
   -5.1792   -3.4524  -20.6399 H   0  0  0  0  0  0  0  0  0  0  0  0
    3.7115   -4.0825  -23.5478 C   0  0  0  0  0  0  0  0  0  0  0  0
    3.1254   -5.3502  -23.5571 C   0  0  0  0  0  0  0  0  0  0  0  0
    2.8779   -5.9485  -24.7791 C   0  0  0  0  0  0  0  0  0  0  0  0
    3.1707   -5.3753  -25.9653 N   0  0  0  0  0  0  0  0  0  0  0  0
    3.7193   -4.1409  -25.9276 C   0  0  0  0  0  0  0  0  0  0  0  0
    4.0014   -3.4562  -24.7583 C   0  0  0  0  0  0  0  0  0  0  0  0
    6.5227   -2.4975  -19.9484 C   0  0  0  0  0  0  0  0  0  0  0  0
    6.3519   -2.8257  -18.4686 C   0  0  0  0  0  0  0  0  0  0  0  0
    6.2261   -1.6441  -17.6790 O   0  0  0  0  0  0  0  0  0  0  0  0
    6.9339   -1.0318  -17.9807 H   0  0  0  0  0  0  0  0  0  0  0  0
  6  7  1  0  0  0
  7  8  1  0  0  0
  8  9  2  0  0  0
  9 10  1  0  0  0
  8 11  1  0  0  0
 11 12  2  0  0  0
  6 12  1  0  0  0
 12 13  1  0  0  0
 13 14  2  0  0  0
 14 15  1  0  0  0
 15 16  2  0  0  0
 11 16  1  0  0  0
 14  1  1  0  0  0
  1  2  2  0  0  0
  2  3  1  0  0  0
  3  4  1  0  0  0
  4  5  2  0  0  0
  1  5  1  0  0  0
  5 18  1  0  0  0
 18 19  2  0  0  0
 19 20  1  0  0  0
 20 21  2  0  0  0
 21 22  1  0  0  0
 22 23  2  0  0  0
 18 23  1  0  0  0
  3 24  1  0  0  0
 24 25  1  0  0  0
 25 26  1  0  0  0
 10 17  1  0  0  0
 26 27  1  0  0  0
M  END
> <minimizedAffinity>
-9.49668

$$$$
mol_44587235_11


 32 36  0  0  0  0  0  0  0  0999 V2000
   -1.4345   -3.3910  -20.8915 N   0  0  0  0  0  0  0  0  0  0  0  0
   -0.4002   -2.9700  -20.0964 C   0  0  0  0  0  0  0  0  0  0  0  0
    0.7574   -3.3075  -20.7646 C   0  0  0  0  0  0  0  0  0  0  0  0
    0.3218   -3.9867  -21.9390 C   0  0  0  0  0  0  0  0  0  0  0  0
   -1.0140   -3.9980  -22.0189 N   0  0  0  0  0  0  0  0  0  0  0  0
    2.1024   -2.9673  -20.3430 C   0  0  0  0  0  0  0  0  0  0  0  0
    3.1270   -2.9522  -21.3069 C   0  0  0  0  0  0  0  0  0  0  0  0
    4.4330   -2.7316  -20.9010 C   0  0  0  0  0  0  0  0  0  0  0  0
    4.7117   -2.5221  -19.5575 C   0  0  0  0  0  0  0  0  0  0  0  0
    3.7273   -2.5124  -18.5834 C   0  0  0  0  0  0  0  0  0  0  0  0
    2.4055   -2.7362  -18.9868 C   0  0  0  0  0  0  0  0  0  0  0  0
    6.1493   -2.3512  -19.4192 C   0  0  0  0  0  0  0  0  0  0  0  0
    6.7400   -2.1590  -18.2820 N   0  0  0  0  0  0  0  0  0  0  0  0
    8.1218   -2.0338  -18.4668 O   0  0  0  0  0  0  0  0  0  0  0  0
    6.8034   -2.4361  -20.7791 C   0  0  0  0  0  0  0  0  0  0  0  0
    5.6564   -2.7187  -21.7596 C   0  0  0  0  0  0  0  0  0  0  0  0
    8.4436   -1.9045  -17.5554 H   0  0  0  0  0  0  0  0  0  0  0  0
   -4.6759   -3.5372  -18.8096 C   0  0  0  0  0  0  0  0  0  0  0  0
   -5.2170   -2.1504  -19.1822 C   0  0  0  0  0  0  0  0  0  0  0  0
   -4.9629   -1.8490  -20.6533 C   0  0  0  0  0  0  0  0  0  0  0  0
   -3.4802   -1.9473  -20.9866 C   0  0  0  0  0  0  0  0  0  0  0  0
   -2.8690   -3.3097  -20.5913 C   0  0  0  0  0  0  0  0  0  0  0  0
   -3.1709   -3.6329  -19.1151 C   0  0  0  0  0  0  0  0  0  0  0  0
   -4.4774   -2.6688  -16.5531 C   0  0  0  0  0  0  0  0  0  0  0  0
   -4.9088   -3.7890  -17.3815 N   0  0  0  0  0  0  0  0  0  0  0  0
   -4.4024   -4.6218  -17.0793 H   0  0  0  0  0  0  0  0  0  0  0  0
    1.1421   -4.6146  -22.9661 C   0  0  0  0  0  0  0  0  0  0  0  0
    1.5736   -3.8804  -24.0691 C   0  0  0  0  0  0  0  0  0  0  0  0
    2.3818   -4.5139  -24.9965 C   0  0  0  0  0  0  0  0  0  0  0  0
    2.7696   -5.8048  -24.9010 N   0  0  0  0  0  0  0  0  0  0  0  0
    2.3208   -6.4975  -23.8324 C   0  0  0  0  0  0  0  0  0  0  0  0
    1.5169   -5.9538  -22.8466 C   0  0  0  0  0  0  0  0  0  0  0  0
 24 25  1  0  0  0
 25 18  1  0  0  0
 18 19  1  0  0  0
 19 20  1  0  0  0
 20 21  1  0  0  0
 21 22  1  0  0  0
 22 23  1  0  0  0
 18 23  1  0  0  0
 22  1  1  0  0  0
  1  2  1  0  0  0
  2  3  2  0  0  0
  3  4  1  0  0  0
  4  5  2  0  0  0
  1  5  1  0  0  0
  4 27  1  0  0  0
 27 28  2  0  0  0
 28 29  1  0  0  0
 29 30  2  0  0  0
 30 31  1  0  0  0
 31 32  2  0  0  0
 27 32  1  0  0  0
  3  6  1  0  0  0
  6  7  2  0  0  0
  7  8  1  0  0  0
  8  9  2  0  0  0
  9 10  1  0  0  0
 10 11  2  0  0  0
  6 11  1  0  0  0
  9 12  1  0  0  0
 12 13  2  0  0  0
 13 14  1  0  0  0
 12 15  1  0  0  0
 15 16  1  0  0  0
  8 16  1  0  0  0
 25 26  1  0  0  0
 14 17  1  0  0  0
M  END
> <minimizedAffinity>
-10.95070

$$$$
mol_44587235_11


 32 36  0  0  0  0  0  0  0  0999 V2000
    4.5195   -3.6716  -23.0461 N   0  0  0  0  0  0  0  0  0  0  0  0
    3.1607   -3.8251  -23.1422 C   0  0  0  0  0  0  0  0  0  0  0  0
    2.6372   -3.3427  -21.9617 C   0  0  0  0  0  0  0  0  0  0  0  0
    3.7688   -2.9678  -21.1812 C   0  0  0  0  0  0  0  0  0  0  0  0
    4.9040   -3.1410  -21.8685 N   0  0  0  0  0  0  0  0  0  0  0  0
    1.2253   -3.2146  -21.6571 C   0  0  0  0  0  0  0  0  0  0  0  0
    0.6844   -1.9256  -21.4996 C   0  0  0  0  0  0  0  0  0  0  0  0
   -0.6372   -1.7911  -21.1064 C   0  0  0  0  0  0  0  0  0  0  0  0
   -1.4085   -2.9229  -20.8813 C   0  0  0  0  0  0  0  0  0  0  0  0
   -0.9153   -4.2069  -21.0435 C   0  0  0  0  0  0  0  0  0  0  0  0
    0.4199   -4.3498  -21.4393 C   0  0  0  0  0  0  0  0  0  0  0  0
   -2.7290   -2.4880  -20.4544 C   0  0  0  0  0  0  0  0  0  0  0  0
   -3.6844   -3.3057  -20.1420 N   0  0  0  0  0  0  0  0  0  0  0  0
   -4.8308   -2.5945  -19.7691 O   0  0  0  0  0  0  0  0  0  0  0  0
   -2.7852   -0.9777  -20.4389 C   0  0  0  0  0  0  0  0  0  0  0  0
   -1.3780   -0.5191  -20.8469 C   0  0  0  0  0  0  0  0  0  0  0  0
   -5.4590   -3.3087  -19.5544 H   0  0  0  0  0  0  0  0  0  0  0  0
    7.2184   -5.8703  -24.7028 C   0  0  0  0  0  0  0  0  0  0  0  0
    6.5977   -5.9282  -26.1050 C   0  0  0  0  0  0  0  0  0  0  0  0
    6.0047   -4.5790  -26.4892 C   0  0  0  0  0  0  0  0  0  0  0  0
    4.9700   -4.1228  -25.4693 C   0  0  0  0  0  0  0  0  0  0  0  0
    5.5271   -4.0880  -24.0290 C   0  0  0  0  0  0  0  0  0  0  0  0
    6.1699   -5.4396  -23.6623 C   0  0  0  0  0  0  0  0  0  0  0  0
    6.7452   -8.0434  -23.7338 C   0  0  0  0  0  0  0  0  0  0  0  0
    7.7562   -7.1900  -24.3477 N   0  0  0  0  0  0  0  0  0  0  0  0
    8.5323   -7.0939  -23.6920 H   0  0  0  0  0  0  0  0  0  0  0  0
    3.7860   -2.4582  -19.8166 C   0  0  0  0  0  0  0  0  0  0  0  0
    2.8048   -2.8479  -18.9070 C   0  0  0  0  0  0  0  0  0  0  0  0
    2.8884   -2.3648  -17.6132 C   0  0  0  0  0  0  0  0  0  0  0  0
    3.8596   -1.5302  -17.1818 N   0  0  0  0  0  0  0  0  0  0  0  0
    4.7858   -1.1536  -18.0893 C   0  0  0  0  0  0  0  0  0  0  0  0
    4.7952   -1.5872  -19.4030 C   0  0  0  0  0  0  0  0  0  0  0  0
 24 25  1  0  0  0
 25 18  1  0  0  0
 18 19  1  0  0  0
 19 20  1  0  0  0
 20 21  1  0  0  0
 21 22  1  0  0  0
 22 23  1  0  0  0
 18 23  1  0  0  0
 22  1  1  0  0  0
  1  2  1  0  0  0
  2  3  2  0  0  0
  3  4  1  0  0  0
  4  5  2  0  0  0
  1  5  1  0  0  0
  4 27  1  0  0  0
 27 28  2  0  0  0
 28 29  1  0  0  0
 29 30  2  0  0  0
 30 31  1  0  0  0
 31 32  2  0  0  0
 27 32  1  0  0  0
  3  6  1  0  0  0
  6  7  2  0  0  0
  7  8  1  0  0  0
  8  9  2  0  0  0
  9 10  1  0  0  0
 10 11  2  0  0  0
  6 11  1  0  0  0
  9 12  1  0  0  0
 12 13  2  0  0  0
 13 14  1  0  0  0
 12 15  1  0  0  0
 15 16  1  0  0  0
  8 16  1  0  0  0
 25 26  1  0  0  0
 14 17  1  0  0  0
M  END
> <minimizedAffinity>
-10.62697

$$$$
mol_44587235_11


 32 36  0  0  0  0  0  0  0  0999 V2000
    0.5808   -2.9332  -21.9667 N   0  0  0  0  0  0  0  0  0  0  0  0
    1.7373   -2.7069  -21.2663 C   0  0  0  0  0  0  0  0  0  0  0  0
    2.7261   -3.4061  -21.9250 C   0  0  0  0  0  0  0  0  0  0  0  0
    2.0576   -4.0780  -22.9889 C   0  0  0  0  0  0  0  0  0  0  0  0
    0.7601   -3.7521  -23.0219 N   0  0  0  0  0  0  0  0  0  0  0  0
    4.1378   -3.3802  -21.5951 C   0  0  0  0  0  0  0  0  0  0  0  0
    4.5279   -2.8683  -20.3441 C   0  0  0  0  0  0  0  0  0  0  0  0
    5.8774   -2.7409  -20.0576 C   0  0  0  0  0  0  0  0  0  0  0  0
    6.8218   -3.1244  -20.9996 C   0  0  0  0  0  0  0  0  0  0  0  0
    6.4752   -3.6486  -22.2337 C   0  0  0  0  0  0  0  0  0  0  0  0
    5.1132   -3.7786  -22.5302 C   0  0  0  0  0  0  0  0  0  0  0  0
    8.1402   -2.8537  -20.4486 C   0  0  0  0  0  0  0  0  0  0  0  0
    9.2431   -3.0793  -21.0904 N   0  0  0  0  0  0  0  0  0  0  0  0
   10.3447   -2.7170  -20.3066 O   0  0  0  0  0  0  0  0  0  0  0  0
    8.0007   -2.2851  -19.0552 C   0  0  0  0  0  0  0  0  0  0  0  0
    6.4882   -2.1855  -18.8115 C   0  0  0  0  0  0  0  0  0  0  0  0
   11.0955   -2.9232  -20.8936 H   0  0  0  0  0  0  0  0  0  0  0  0
   -2.9141   -2.8972  -20.3397 C   0  0  0  0  0  0  0  0  0  0  0  0
   -2.8335   -1.4951  -19.7212 C   0  0  0  0  0  0  0  0  0  0  0  0
   -2.1403   -0.5256  -20.6693 C   0  0  0  0  0  0  0  0  0  0  0  0
   -0.7498   -1.0215  -21.0429 C   0  0  0  0  0  0  0  0  0  0  0  0
   -0.7639   -2.4498  -21.6311 C   0  0  0  0  0  0  0  0  0  0  0  0
   -1.5092   -3.4171  -20.6913 C   0  0  0  0  0  0  0  0  0  0  0  0
   -4.2783   -3.1017  -18.3442 C   0  0  0  0  0  0  0  0  0  0  0  0
   -3.5605   -3.8161  -19.3938 N   0  0  0  0  0  0  0  0  0  0  0  0
   -2.8658   -4.4184  -18.9509 H   0  0  0  0  0  0  0  0  0  0  0  0
    2.6240   -5.0092  -23.9555 C   0  0  0  0  0  0  0  0  0  0  0  0
    2.9516   -4.5786  -25.2397 C   0  0  0  0  0  0  0  0  0  0  0  0
    3.5217   -5.4936  -26.1071 C   0  0  0  0  0  0  0  0  0  0  0  0
    3.7709   -6.7822  -25.7858 N   0  0  0  0  0  0  0  0  0  0  0  0
    3.4256   -7.1769  -24.5415 C   0  0  0  0  0  0  0  0  0  0  0  0
    2.8590   -6.3380  -23.5988 C   0  0  0  0  0  0  0  0  0  0  0  0
 24 25  1  0  0  0
 25 18  1  0  0  0
 18 19  1  0  0  0
 19 20  1  0  0  0
 20 21  1  0  0  0
 21 22  1  0  0  0
 22 23  1  0  0  0
 18 23  1  0  0  0
 22  1  1  0  0  0
  1  2  1  0  0  0
  2  3  2  0  0  0
  3  4  1  0  0  0
  4  5  2  0  0  0
  1  5  1  0  0  0
  4 27  1  0  0  0
 27 28  2  0  0  0
 28 29  1  0  0  0
 29 30  2  0  0  0
 30 31  1  0  0  0
 31 32  2  0  0  0
 27 32  1  0  0  0
  3  6  1  0  0  0
  6  7  2  0  0  0
  7  8  1  0  0  0
  8  9  2  0  0  0
  9 10  1  0  0  0
 10 11  2  0  0  0
  6 11  1  0  0  0
  9 12  1  0  0  0
 12 13  2  0  0  0
 13 14  1  0  0  0
 12 15  1  0  0  0
 15 16  1  0  0  0
  8 16  1  0  0  0
 25 26  1  0  0  0
 14 17  1  0  0  0
M  END
> <minimizedAffinity>
-10.44901

$$$$
mol_60146017_12


 27 30  0  0  0  0  0  0  0  0999 V2000
    2.3951   -2.7923  -21.2733 C   0  0  0  0  0  0  0  0  0  0  0  0
    2.5928   -2.6041  -19.9105 C   0  0  0  0  0  0  0  0  0  0  0  0
    3.9001   -2.8591  -19.6541 N   0  0  0  0  0  0  0  0  0  0  0  0
    4.5768   -3.2764  -20.7311 N   0  0  0  0  0  0  0  0  0  0  0  0
    3.6939   -3.2013  -21.7423 C   0  0  0  0  0  0  0  0  0  0  0  0
    0.0957   -3.7425  -21.7130 C   0  0  0  0  0  0  0  0  0  0  0  0
    1.0533   -2.5575  -21.9199 C   0  0  0  0  0  0  0  0  0  0  0  0
    0.3183   -1.3882  -21.3379 C   0  0  0  0  0  0  0  0  0  0  0  0
    0.6754   -0.0446  -21.4079 C   0  0  0  0  0  0  0  0  0  0  0  0
   -0.1363    0.9047  -20.7811 C   0  0  0  0  0  0  0  0  0  0  0  0
   -1.3115    0.5164  -20.1251 C   0  0  0  0  0  0  0  0  0  0  0  0
   -1.7018   -0.8236  -20.1061 C   0  0  0  0  0  0  0  0  0  0  0  0
   -0.8842   -1.7575  -20.7240 C   0  0  0  0  0  0  0  0  0  0  0  0
   -1.0569   -3.1988  -20.9047 C   0  0  0  0  0  0  0  0  0  0  0  0
   -1.9944   -4.0139  -20.5316 N   0  0  0  0  0  0  0  0  0  0  0  0
   -3.0167   -3.3928  -19.8199 O   0  0  0  0  0  0  0  0  0  0  0  0
   -3.6412   -4.1273  -19.6704 H   0  0  0  0  0  0  0  0  0  0  0  0
    4.1555   -3.5569  -23.0776 C   0  0  0  0  0  0  0  0  0  0  0  0
    5.2176   -2.8828  -23.6757 C   0  0  0  0  0  0  0  0  0  0  0  0
    5.5730   -3.2444  -24.9644 C   0  0  0  0  0  0  0  0  0  0  0  0
    4.9695   -4.2288  -25.6674 N   0  0  0  0  0  0  0  0  0  0  0  0
    3.9703   -4.8915  -25.0471 C   0  0  0  0  0  0  0  0  0  0  0  0
    3.5340   -4.6008  -23.7669 C   0  0  0  0  0  0  0  0  0  0  0  0
    4.5933   -2.7144  -18.3847 C   0  0  0  0  0  0  0  0  0  0  0  0
    4.5629   -1.2761  -17.8811 C   0  0  0  0  0  0  0  0  0  0  0  0
    3.6781   -1.1250  -16.7728 O   0  0  0  0  0  0  0  0  0  0  0  0
    2.8472   -1.5921  -17.0147 H   0  0  0  0  0  0  0  0  0  0  0  0
  6  7  1  0  0  0
  7  8  1  0  0  0
  8  9  2  0  0  0
  9 10  1  0  0  0
 10 11  2  0  0  0
 11 12  1  0  0  0
 12 13  2  0  0  0
  8 13  1  0  0  0
 13 14  1  0  0  0
  6 14  1  0  0  0
 14 15  2  0  0  0
 15 16  1  0  0  0
  7  1  1  0  0  0
  1  2  2  0  0  0
  2  3  1  0  0  0
  3  4  1  0  0  0
  4  5  2  0  0  0
  1  5  1  0  0  0
  5 18  1  0  0  0
 18 19  2  0  0  0
 19 20  1  0  0  0
 20 21  2  0  0  0
 21 22  1  0  0  0
 22 23  2  0  0  0
 18 23  1  0  0  0
  3 24  1  0  0  0
 24 25  1  0  0  0
 25 26  1  0  0  0
 16 17  1  0  0  0
 26 27  1  0  0  0
M  END
> <minimizedAffinity>
-9.42776

$$$$
mol_60146017_12


 27 30  0  0  0  0  0  0  0  0999 V2000
    2.4280   -3.0068  -21.3024 C   0  0  0  0  0  0  0  0  0  0  0  0
    1.8280   -3.5445  -22.4349 C   0  0  0  0  0  0  0  0  0  0  0  0
    2.8155   -4.0652  -23.2052 N   0  0  0  0  0  0  0  0  0  0  0  0
    4.0400   -3.8506  -22.7087 N   0  0  0  0  0  0  0  0  0  0  0  0
    3.8304   -3.2469  -21.5258 C   0  0  0  0  0  0  0  0  0  0  0  0
    1.8127   -0.8477  -20.1435 C   0  0  0  0  0  0  0  0  0  0  0  0
    1.6172   -2.3716  -20.2012 C   0  0  0  0  0  0  0  0  0  0  0  0
    0.1399   -2.5433  -20.3867 C   0  0  0  0  0  0  0  0  0  0  0  0
   -0.5858   -3.7305  -20.3438 C   0  0  0  0  0  0  0  0  0  0  0  0
   -1.9657   -3.6881  -20.5608 C   0  0  0  0  0  0  0  0  0  0  0  0
   -2.6159   -2.4669  -20.7800 C   0  0  0  0  0  0  0  0  0  0  0  0
   -1.8981   -1.2699  -20.7633 C   0  0  0  0  0  0  0  0  0  0  0  0
   -0.5284   -1.3250  -20.5554 C   0  0  0  0  0  0  0  0  0  0  0  0
    0.4583   -0.2514  -20.4390 C   0  0  0  0  0  0  0  0  0  0  0  0
    0.3495    1.0390  -20.5140 N   0  0  0  0  0  0  0  0  0  0  0  0
   -0.9504    1.4712  -20.7603 O   0  0  0  0  0  0  0  0  0  0  0  0
   -0.8549    2.4417  -20.7331 H   0  0  0  0  0  0  0  0  0  0  0  0
    4.9938   -2.9188  -20.7126 C   0  0  0  0  0  0  0  0  0  0  0  0
    6.2345   -2.6737  -21.2964 C   0  0  0  0  0  0  0  0  0  0  0  0
    7.3059   -2.4119  -20.4589 C   0  0  0  0  0  0  0  0  0  0  0  0
    7.2159   -2.3539  -19.1113 N   0  0  0  0  0  0  0  0  0  0  0  0
    5.9931   -2.5556  -18.5763 C   0  0  0  0  0  0  0  0  0  0  0  0
    4.8631   -2.8333  -19.3245 C   0  0  0  0  0  0  0  0  0  0  0  0
    2.6663   -4.8054  -24.4474 C   0  0  0  0  0  0  0  0  0  0  0  0
    2.3275   -6.2705  -24.1988 C   0  0  0  0  0  0  0  0  0  0  0  0
    3.2905   -6.8975  -23.3540 O   0  0  0  0  0  0  0  0  0  0  0  0
    4.1741   -6.6355  -23.6975 H   0  0  0  0  0  0  0  0  0  0  0  0
  6  7  1  0  0  0
  7  8  1  0  0  0
  8  9  2  0  0  0
  9 10  1  0  0  0
 10 11  2  0  0  0
 11 12  1  0  0  0
 12 13  2  0  0  0
  8 13  1  0  0  0
 13 14  1  0  0  0
  6 14  1  0  0  0
 14 15  2  0  0  0
 15 16  1  0  0  0
  7  1  1  0  0  0
  1  2  2  0  0  0
  2  3  1  0  0  0
  3  4  1  0  0  0
  4  5  2  0  0  0
  1  5  1  0  0  0
  5 18  1  0  0  0
 18 19  2  0  0  0
 19 20  1  0  0  0
 20 21  2  0  0  0
 21 22  1  0  0  0
 22 23  2  0  0  0
 18 23  1  0  0  0
  3 24  1  0  0  0
 24 25  1  0  0  0
 25 26  1  0  0  0
 16 17  1  0  0  0
 26 27  1  0  0  0
M  END
> <minimizedAffinity>
-9.34478

$$$$
mol_60146017_12


 27 30  0  0  0  0  0  0  0  0999 V2000
    3.7323   -3.0665  -21.9380 C   0  0  0  0  0  0  0  0  0  0  0  0
    2.9893   -2.5010  -20.9086 C   0  0  0  0  0  0  0  0  0  0  0  0
    1.7139   -2.9427  -21.0427 N   0  0  0  0  0  0  0  0  0  0  0  0
    1.5309   -3.7031  -22.1291 N   0  0  0  0  0  0  0  0  0  0  0  0
    2.7556   -3.8323  -22.6686 C   0  0  0  0  0  0  0  0  0  0  0  0
    5.7431   -1.8613  -20.9959 C   0  0  0  0  0  0  0  0  0  0  0  0
    5.2134   -2.8191  -22.0757 C   0  0  0  0  0  0  0  0  0  0  0  0
    6.0346   -4.0601  -21.8975 C   0  0  0  0  0  0  0  0  0  0  0  0
    6.0650   -5.1802  -22.7235 C   0  0  0  0  0  0  0  0  0  0  0  0
    6.8890   -6.2543  -22.3766 C   0  0  0  0  0  0  0  0  0  0  0  0
    7.7011   -6.1911  -21.2371 C   0  0  0  0  0  0  0  0  0  0  0  0
    7.7163   -5.0444  -20.4415 C   0  0  0  0  0  0  0  0  0  0  0  0
    6.8884   -3.9884  -20.7907 C   0  0  0  0  0  0  0  0  0  0  0  0
    6.7304   -2.6657  -20.1862 C   0  0  0  0  0  0  0  0  0  0  0  0
    7.2903   -2.1096  -19.1568 N   0  0  0  0  0  0  0  0  0  0  0  0
    8.2028   -2.9372  -18.5089 O   0  0  0  0  0  0  0  0  0  0  0  0
    8.5541   -2.3526  -17.8113 H   0  0  0  0  0  0  0  0  0  0  0  0
    2.8908   -4.6566  -23.8622 C   0  0  0  0  0  0  0  0  0  0  0  0
    3.3596   -4.1197  -25.0589 C   0  0  0  0  0  0  0  0  0  0  0  0
    3.4196   -4.9515  -26.1645 C   0  0  0  0  0  0  0  0  0  0  0  0
    3.0758   -6.2587  -26.1469 N   0  0  0  0  0  0  0  0  0  0  0  0
    2.6637   -6.7613  -24.9637 C   0  0  0  0  0  0  0  0  0  0  0  0
    2.5594   -6.0124  -23.8052 C   0  0  0  0  0  0  0  0  0  0  0  0
    0.5945   -2.6860  -20.1516 C   0  0  0  0  0  0  0  0  0  0  0  0
   -0.6922   -3.3291  -20.6556 C   0  0  0  0  0  0  0  0  0  0  0  0
   -0.7015   -4.7369  -20.4274 O   0  0  0  0  0  0  0  0  0  0  0  0
    0.1766   -5.0714  -20.7178 H   0  0  0  0  0  0  0  0  0  0  0  0
  6  7  1  0  0  0
  7  8  1  0  0  0
  8  9  2  0  0  0
  9 10  1  0  0  0
 10 11  2  0  0  0
 11 12  1  0  0  0
 12 13  2  0  0  0
  8 13  1  0  0  0
 13 14  1  0  0  0
  6 14  1  0  0  0
 14 15  2  0  0  0
 15 16  1  0  0  0
  7  1  1  0  0  0
  1  2  2  0  0  0
  2  3  1  0  0  0
  3  4  1  0  0  0
  4  5  2  0  0  0
  1  5  1  0  0  0
  5 18  1  0  0  0
 18 19  2  0  0  0
 19 20  1  0  0  0
 20 21  2  0  0  0
 21 22  1  0  0  0
 22 23  2  0  0  0
 18 23  1  0  0  0
  3 24  1  0  0  0
 24 25  1  0  0  0
 25 26  1  0  0  0
 16 17  1  0  0  0
 26 27  1  0  0  0
M  END
> <minimizedAffinity>
-9.18878

$$$$
mol_11639637_13


 30 34  0  0  0  0  0  0  0  0999 V2000
    4.4370   -3.4579  -23.1592 N   0  0  0  0  0  0  0  0  0  0  0  0
    3.0829   -3.6603  -23.2185 C   0  0  0  0  0  0  0  0  0  0  0  0
    2.5845   -3.2568  -22.0003 C   0  0  0  0  0  0  0  0  0  0  0  0
    3.7283   -2.8831  -21.2371 C   0  0  0  0  0  0  0  0  0  0  0  0
    4.8478   -2.9892  -21.9649 N   0  0  0  0  0  0  0  0  0  0  0  0
    1.1783   -3.1771  -21.6618 C   0  0  0  0  0  0  0  0  0  0  0  0
    0.5949   -1.9074  -21.5042 C   0  0  0  0  0  0  0  0  0  0  0  0
   -0.7265   -1.8193  -21.0992 C   0  0  0  0  0  0  0  0  0  0  0  0
   -1.4534   -2.9775  -20.8599 C   0  0  0  0  0  0  0  0  0  0  0  0
   -0.9159   -4.2438  -21.0190 C   0  0  0  0  0  0  0  0  0  0  0  0
    0.4185   -4.3401  -21.4290 C   0  0  0  0  0  0  0  0  0  0  0  0
   -2.7854   -2.5889  -20.4249 C   0  0  0  0  0  0  0  0  0  0  0  0
   -3.7065   -3.4397  -20.0991 N   0  0  0  0  0  0  0  0  0  0  0  0
   -4.8754   -2.7698  -19.7204 O   0  0  0  0  0  0  0  0  0  0  0  0
   -2.8973   -1.0816  -20.4189 C   0  0  0  0  0  0  0  0  0  0  0  0
   -1.5129   -0.5739  -20.8456 C   0  0  0  0  0  0  0  0  0  0  0  0
   -5.4728   -3.5057  -19.4912 H   0  0  0  0  0  0  0  0  0  0  0  0
    7.8377   -5.8513  -27.0606 C   0  0  0  0  0  0  0  0  0  0  0  0
    6.8677   -5.5207  -26.0158 N   0  0  0  0  0  0  0  0  0  0  0  0
    5.8199   -4.6418  -26.5474 C   0  0  0  0  0  0  0  0  0  0  0  0
    4.7651   -4.3468  -25.4857 C   0  0  0  0  0  0  0  0  0  0  0  0
    5.3996   -3.7387  -24.2247 C   0  0  0  0  0  0  0  0  0  0  0  0
    6.5384   -4.6417  -23.7340 C   0  0  0  0  0  0  0  0  0  0  0  0
    7.5359   -4.9231  -24.8565 C   0  0  0  0  0  0  0  0  0  0  0  0
    3.7611   -2.4303  -19.8533 C   0  0  0  0  0  0  0  0  0  0  0  0
    2.8438   -2.9236  -18.9277 C   0  0  0  0  0  0  0  0  0  0  0  0
    2.9557   -2.5027  -17.6144 C   0  0  0  0  0  0  0  0  0  0  0  0
    3.8953   -1.6345  -17.1784 N   0  0  0  0  0  0  0  0  0  0  0  0
    4.7578   -1.1574  -18.1010 C   0  0  0  0  0  0  0  0  0  0  0  0
    4.7353   -1.5225  -19.4348 C   0  0  0  0  0  0  0  0  0  0  0  0
 18 19  1  0  0  0
 19 20  1  0  0  0
 20 21  1  0  0  0
 21 22  1  0  0  0
 22 23  1  0  0  0
 23 24  1  0  0  0
 19 24  1  0  0  0
 22  1  1  0  0  0
  1  2  1  0  0  0
  2  3  2  0  0  0
  3  4  1  0  0  0
  4  5  2  0  0  0
  1  5  1  0  0  0
  4 25  1  0  0  0
 25 26  2  0  0  0
 26 27  1  0  0  0
 27 28  2  0  0  0
 28 29  1  0  0  0
 29 30  2  0  0  0
 25 30  1  0  0  0
  3  6  1  0  0  0
  6  7  2  0  0  0
  7  8  1  0  0  0
  8  9  2  0  0  0
  9 10  1  0  0  0
 10 11  2  0  0  0
  6 11  1  0  0  0
  9 12  1  0  0  0
 12 13  2  0  0  0
 13 14  1  0  0  0
 12 15  1  0  0  0
 15 16  1  0  0  0
  8 16  1  0  0  0
 14 17  1  0  0  0
M  END
> <minimizedAffinity>
-10.46468

$$$$
mol_11639637_13


 30 34  0  0  0  0  0  0  0  0999 V2000
    1.8154   -2.8961  -21.2208 N   0  0  0  0  0  0  0  0  0  0  0  0
    2.9899   -2.7244  -20.5358 C   0  0  0  0  0  0  0  0  0  0  0  0
    3.9903   -3.1357  -21.3875 C   0  0  0  0  0  0  0  0  0  0  0  0
    3.3163   -3.6056  -22.5516 C   0  0  0  0  0  0  0  0  0  0  0  0
    1.9925   -3.4315  -22.4443 N   0  0  0  0  0  0  0  0  0  0  0  0
    5.4095   -3.0125  -21.1247 C   0  0  0  0  0  0  0  0  0  0  0  0
    6.2301   -4.1377  -21.3193 C   0  0  0  0  0  0  0  0  0  0  0  0
    7.5733   -4.0560  -20.9919 C   0  0  0  0  0  0  0  0  0  0  0  0
    8.0886   -2.8715  -20.4834 C   0  0  0  0  0  0  0  0  0  0  0  0
    7.3134   -1.7399  -20.2927 C   0  0  0  0  0  0  0  0  0  0  0  0
    5.9556   -1.8152  -20.6224 C   0  0  0  0  0  0  0  0  0  0  0  0
    9.5005   -3.0799  -20.2052 C   0  0  0  0  0  0  0  0  0  0  0  0
   10.2703   -2.1691  -19.6988 N   0  0  0  0  0  0  0  0  0  0  0  0
   11.5704   -2.6630  -19.5427 O   0  0  0  0  0  0  0  0  0  0  0  0
    9.8915   -4.4875  -20.5930 C   0  0  0  0  0  0  0  0  0  0  0  0
    8.5959   -5.1412  -21.0937 C   0  0  0  0  0  0  0  0  0  0  0  0
   12.0369   -1.9023  -19.1493 H   0  0  0  0  0  0  0  0  0  0  0  0
   -3.7618   -1.8877  -20.5952 C   0  0  0  0  0  0  0  0  0  0  0  0
   -2.4058   -2.2081  -21.0427 N   0  0  0  0  0  0  0  0  0  0  0  0
   -1.8943   -3.3843  -20.3300 C   0  0  0  0  0  0  0  0  0  0  0  0
   -0.5085   -3.7697  -20.8380 C   0  0  0  0  0  0  0  0  0  0  0  0
    0.4733   -2.5926  -20.7234 C   0  0  0  0  0  0  0  0  0  0  0  0
   -0.1196   -1.3578  -21.4140 C   0  0  0  0  0  0  0  0  0  0  0  0
   -1.5189   -1.0526  -20.8822 C   0  0  0  0  0  0  0  0  0  0  0  0
    3.9110   -4.2001  -23.7407 C   0  0  0  0  0  0  0  0  0  0  0  0
    3.8734   -5.5793  -23.9340 C   0  0  0  0  0  0  0  0  0  0  0  0
    4.4029   -6.0857  -25.1078 C   0  0  0  0  0  0  0  0  0  0  0  0
    4.9631   -5.3230  -26.0728 N   0  0  0  0  0  0  0  0  0  0  0  0
    5.0040   -3.9922  -25.8495 C   0  0  0  0  0  0  0  0  0  0  0  0
    4.4945   -3.3879  -24.7145 C   0  0  0  0  0  0  0  0  0  0  0  0
 18 19  1  0  0  0
 19 20  1  0  0  0
 20 21  1  0  0  0
 21 22  1  0  0  0
 22 23  1  0  0  0
 23 24  1  0  0  0
 19 24  1  0  0  0
 22  1  1  0  0  0
  1  2  1  0  0  0
  2  3  2  0  0  0
  3  4  1  0  0  0
  4  5  2  0  0  0
  1  5  1  0  0  0
  4 25  1  0  0  0
 25 26  2  0  0  0
 26 27  1  0  0  0
 27 28  2  0  0  0
 28 29  1  0  0  0
 29 30  2  0  0  0
 25 30  1  0  0  0
  3  6  1  0  0  0
  6  7  2  0  0  0
  7  8  1  0  0  0
  8  9  2  0  0  0
  9 10  1  0  0  0
 10 11  2  0  0  0
  6 11  1  0  0  0
  9 12  1  0  0  0
 12 13  2  0  0  0
 13 14  1  0  0  0
 12 15  1  0  0  0
 15 16  1  0  0  0
  8 16  1  0  0  0
 14 17  1  0  0  0
M  END
> <minimizedAffinity>
-10.10599

$$$$
mol_11639637_13


 30 34  0  0  0  0  0  0  0  0999 V2000
    5.0027   -2.7988  -21.2521 N   0  0  0  0  0  0  0  0  0  0  0  0
    3.7535   -2.3987  -20.8548 C   0  0  0  0  0  0  0  0  0  0  0  0
    2.8652   -3.0517  -21.6792 C   0  0  0  0  0  0  0  0  0  0  0  0
    3.6768   -3.7814  -22.5952 C   0  0  0  0  0  0  0  0  0  0  0  0
    4.9770   -3.6356  -22.3075 N   0  0  0  0  0  0  0  0  0  0  0  0
    1.4238   -3.0232  -21.5378 C   0  0  0  0  0  0  0  0  0  0  0  0
    0.7980   -1.7929  -21.2699 C   0  0  0  0  0  0  0  0  0  0  0  0
   -0.5691   -1.7668  -21.0500 C   0  0  0  0  0  0  0  0  0  0  0  0
   -1.2986   -2.9467  -21.1007 C   0  0  0  0  0  0  0  0  0  0  0  0
   -0.7181   -4.1735  -21.3763 C   0  0  0  0  0  0  0  0  0  0  0  0
    0.6627   -4.2069  -21.6004 C   0  0  0  0  0  0  0  0  0  0  0  0
   -2.6866   -2.6285  -20.8063 C   0  0  0  0  0  0  0  0  0  0  0  0
   -3.6270   -3.5181  -20.7525 N   0  0  0  0  0  0  0  0  0  0  0  0
   -4.8514   -2.9135  -20.4458 O   0  0  0  0  0  0  0  0  0  0  0  0
   -2.8292   -1.1407  -20.5818 C   0  0  0  0  0  0  0  0  0  0  0  0
   -1.4089   -0.5750  -20.7211 C   0  0  0  0  0  0  0  0  0  0  0  0
   -5.4601   -3.6751  -20.4221 H   0  0  0  0  0  0  0  0  0  0  0  0
    9.9660   -2.4052  -18.4728 C   0  0  0  0  0  0  0  0  0  0  0  0
    8.7012   -2.7957  -19.0970 N   0  0  0  0  0  0  0  0  0  0  0  0
    8.7824   -2.6526  -20.5551 C   0  0  0  0  0  0  0  0  0  0  0  0
    7.4935   -3.1228  -21.2217 C   0  0  0  0  0  0  0  0  0  0  0  0
    6.2734   -2.3706  -20.6667 C   0  0  0  0  0  0  0  0  0  0  0  0
    6.2549   -2.4764  -19.1365 C   0  0  0  0  0  0  0  0  0  0  0  0
    7.5868   -2.0235  -18.5407 C   0  0  0  0  0  0  0  0  0  0  0  0
    3.2330   -4.6024  -23.7131 C   0  0  0  0  0  0  0  0  0  0  0  0
    3.1475   -4.0626  -24.9947 C   0  0  0  0  0  0  0  0  0  0  0  0
    2.7747   -4.9017  -26.0298 C   0  0  0  0  0  0  0  0  0  0  0  0
    2.4791   -6.2108  -25.8698 N   0  0  0  0  0  0  0  0  0  0  0  0
    2.5507   -6.7018  -24.6142 C   0  0  0  0  0  0  0  0  0  0  0  0
    2.9216   -5.9486  -23.5151 C   0  0  0  0  0  0  0  0  0  0  0  0
 18 19  1  0  0  0
 19 20  1  0  0  0
 20 21  1  0  0  0
 21 22  1  0  0  0
 22 23  1  0  0  0
 23 24  1  0  0  0
 19 24  1  0  0  0
 22  1  1  0  0  0
  1  2  1  0  0  0
  2  3  2  0  0  0
  3  4  1  0  0  0
  4  5  2  0  0  0
  1  5  1  0  0  0
  4 25  1  0  0  0
 25 26  2  0  0  0
 26 27  1  0  0  0
 27 28  2  0  0  0
 28 29  1  0  0  0
 29 30  2  0  0  0
 25 30  1  0  0  0
  3  6  1  0  0  0
  6  7  2  0  0  0
  7  8  1  0  0  0
  8  9  2  0  0  0
  9 10  1  0  0  0
 10 11  2  0  0  0
  6 11  1  0  0  0
  9 12  1  0  0  0
 12 13  2  0  0  0
 13 14  1  0  0  0
 12 15  1  0  0  0
 15 16  1  0  0  0
  8 16  1  0  0  0
 14 17  1  0  0  0
M  END
> <minimizedAffinity>
-9.93210

$$$$
mol_74627710_14


 28 31  0  0  0  0  0  0  0  0999 V2000
    1.6973   -2.5685  -20.5564 C   0  0  0  0  0  0  0  0  0  0  0  0
    0.6731   -1.7894  -20.0669 C   0  0  0  0  0  0  0  0  0  0  0  0
   -0.3433   -1.9002  -20.9658 N   0  0  0  0  0  0  0  0  0  0  0  0
   -0.0521   -2.6907  -22.0180 N   0  0  0  0  0  0  0  0  0  0  0  0
    1.1916   -3.1357  -21.7676 C   0  0  0  0  0  0  0  0  0  0  0  0
    7.5902   -2.1641  -19.3768 C   0  0  0  0  0  0  0  0  0  0  0  0
    6.7599   -2.4992  -20.6238 C   0  0  0  0  0  0  0  0  0  0  0  0
    5.3901   -2.6055  -20.0301 C   0  0  0  0  0  0  0  0  0  0  0  0
    5.4645   -2.8055  -18.6448 C   0  0  0  0  0  0  0  0  0  0  0  0
    6.8971   -2.8439  -18.1750 C   0  0  0  0  0  0  0  0  0  0  0  0
    4.3152   -2.9569  -17.8871 C   0  0  0  0  0  0  0  0  0  0  0  0
    3.0788   -2.8890  -18.5339 C   0  0  0  0  0  0  0  0  0  0  0  0
    2.9988   -2.6828  -19.9263 C   0  0  0  0  0  0  0  0  0  0  0  0
    4.1691   -2.5554  -20.6861 C   0  0  0  0  0  0  0  0  0  0  0  0
    7.4052   -4.2109  -17.9981 N   0  0  0  0  0  0  0  0  0  0  0  0
    8.8345   -4.0849  -17.7490 O   0  0  0  0  0  0  0  0  0  0  0  0
    7.0616   -4.5729  -17.1039 H   0  0  0  0  0  0  0  0  0  0  0  0
    9.2092   -4.6891  -18.4193 H   0  0  0  0  0  0  0  0  0  0  0  0
    1.8506   -4.0704  -22.6756 C   0  0  0  0  0  0  0  0  0  0  0  0
    1.2582   -5.2947  -22.9927 C   0  0  0  0  0  0  0  0  0  0  0  0
    1.9349   -6.1519  -23.8427 C   0  0  0  0  0  0  0  0  0  0  0  0
    3.1384   -5.8745  -24.3869 N   0  0  0  0  0  0  0  0  0  0  0  0
    3.6844   -4.6789  -24.0758 C   0  0  0  0  0  0  0  0  0  0  0  0
    3.0868   -3.7525  -23.2389 C   0  0  0  0  0  0  0  0  0  0  0  0
   -1.6435   -1.2523  -20.9019 C   0  0  0  0  0  0  0  0  0  0  0  0
   -2.7282   -2.2104  -20.4202 C   0  0  0  0  0  0  0  0  0  0  0  0
   -2.6292   -3.4785  -21.0669 O   0  0  0  0  0  0  0  0  0  0  0  0
   -2.5383   -3.2882  -22.0275 H   0  0  0  0  0  0  0  0  0  0  0  0
  6  7  1  0  0  0
  7  8  1  0  0  0
  8  9  2  0  0  0
  9 10  1  0  0  0
  6 10  1  0  0  0
 10 15  1  0  0  0
 15 16  1  0  0  0
  9 11  1  0  0  0
 11 12  2  0  0  0
 12 13  1  0  0  0
 13 14  2  0  0  0
  8 14  1  0  0  0
 13  1  1  0  0  0
  1  2  2  0  0  0
  2  3  1  0  0  0
  3  4  1  0  0  0
  4  5  2  0  0  0
  1  5  1  0  0  0
  5 19  1  0  0  0
 19 20  2  0  0  0
 20 21  1  0  0  0
 21 22  2  0  0  0
 22 23  1  0  0  0
 23 24  2  0  0  0
 19 24  1  0  0  0
  3 25  1  0  0  0
 25 26  1  0  0  0
 26 27  1  0  0  0
 15 17  1  0  0  0
 16 18  1  0  0  0
 27 28  1  0  0  0
M  END
> <minimizedAffinity>
-9.84475

$$$$
mol_74627710_14


 28 31  0  0  0  0  0  0  0  0999 V2000
    2.5274   -3.2594  -21.9668 C   0  0  0  0  0  0  0  0  0  0  0  0
    2.9249   -3.6972  -23.2101 C   0  0  0  0  0  0  0  0  0  0  0  0
    4.2852   -3.6448  -23.2076 N   0  0  0  0  0  0  0  0  0  0  0  0
    4.8078   -3.1919  -22.0506 N   0  0  0  0  0  0  0  0  0  0  0  0
    3.7396   -2.9776  -21.2628 C   0  0  0  0  0  0  0  0  0  0  0  0
   -2.9507   -0.9862  -20.9159 C   0  0  0  0  0  0  0  0  0  0  0  0
   -1.5153   -0.4828  -20.7075 C   0  0  0  0  0  0  0  0  0  0  0  0
   -0.7349   -1.7233  -21.0113 C   0  0  0  0  0  0  0  0  0  0  0  0
   -1.5509   -2.8587  -20.9136 C   0  0  0  0  0  0  0  0  0  0  0  0
   -2.9638   -2.4850  -20.5417 C   0  0  0  0  0  0  0  0  0  0  0  0
   -1.0335   -4.1250  -21.1301 C   0  0  0  0  0  0  0  0  0  0  0  0
    0.3178   -4.2427  -21.4646 C   0  0  0  0  0  0  0  0  0  0  0  0
    1.1413   -3.1032  -21.5692 C   0  0  0  0  0  0  0  0  0  0  0  0
    0.6122   -1.8292  -21.3240 C   0  0  0  0  0  0  0  0  0  0  0  0
   -3.2420   -2.6517  -19.1090 N   0  0  0  0  0  0  0  0  0  0  0  0
   -3.8188   -3.9804  -18.9581 O   0  0  0  0  0  0  0  0  0  0  0  0
   -2.3511   -2.7460  -18.6130 H   0  0  0  0  0  0  0  0  0  0  0  0
   -4.6424   -3.7874  -18.4689 H   0  0  0  0  0  0  0  0  0  0  0  0
    3.9032   -2.5163  -19.8869 C   0  0  0  0  0  0  0  0  0  0  0  0
    2.8945   -2.7174  -18.9423 C   0  0  0  0  0  0  0  0  0  0  0  0
    3.0928   -2.2425  -17.6576 C   0  0  0  0  0  0  0  0  0  0  0  0
    4.2080   -1.5943  -17.2605 N   0  0  0  0  0  0  0  0  0  0  0  0
    5.1744   -1.4240  -18.1885 C   0  0  0  0  0  0  0  0  0  0  0  0
    5.0732   -1.8640  -19.4969 C   0  0  0  0  0  0  0  0  0  0  0  0
    5.1773   -3.9967  -24.3007 C   0  0  0  0  0  0  0  0  0  0  0  0
    4.4399   -4.7283  -25.4176 C   0  0  0  0  0  0  0  0  0  0  0  0
    4.4903   -3.9977  -26.6423 O   0  0  0  0  0  0  0  0  0  0  0  0
    4.2420   -3.0728  -26.4182 H   0  0  0  0  0  0  0  0  0  0  0  0
  6  7  1  0  0  0
  7  8  1  0  0  0
  8  9  2  0  0  0
  9 10  1  0  0  0
  6 10  1  0  0  0
 10 15  1  0  0  0
 15 16  1  0  0  0
  9 11  1  0  0  0
 11 12  2  0  0  0
 12 13  1  0  0  0
 13 14  2  0  0  0
  8 14  1  0  0  0
 13  1  1  0  0  0
  1  2  2  0  0  0
  2  3  1  0  0  0
  3  4  1  0  0  0
  4  5  2  0  0  0
  1  5  1  0  0  0
  5 19  1  0  0  0
 19 20  2  0  0  0
 20 21  1  0  0  0
 21 22  2  0  0  0
 22 23  1  0  0  0
 23 24  2  0  0  0
 19 24  1  0  0  0
  3 25  1  0  0  0
 25 26  1  0  0  0
 26 27  1  0  0  0
 15 17  1  0  0  0
 16 18  1  0  0  0
 27 28  1  0  0  0
M  END
> <minimizedAffinity>
-9.67118

$$$$
mol_74627710_14


 28 31  0  0  0  0  0  0  0  0999 V2000
    4.4937   -3.5700  -22.2073 C   0  0  0  0  0  0  0  0  0  0  0  0
    4.4002   -4.1809  -23.4376 C   0  0  0  0  0  0  0  0  0  0  0  0
    3.0700   -4.2570  -23.7170 N   0  0  0  0  0  0  0  0  0  0  0  0
    2.2830   -3.7473  -22.7487 N   0  0  0  0  0  0  0  0  0  0  0  0
    3.1450   -3.2917  -21.8229 C   0  0  0  0  0  0  0  0  0  0  0  0
   10.1769   -4.0277  -20.2648 C   0  0  0  0  0  0  0  0  0  0  0  0
    9.0450   -5.0290  -20.5349 C   0  0  0  0  0  0  0  0  0  0  0  0
    7.8973   -4.0988  -20.7750 C   0  0  0  0  0  0  0  0  0  0  0  0
    8.1698   -2.8289  -20.2479 C   0  0  0  0  0  0  0  0  0  0  0  0
    9.5353   -2.7847  -19.6091 C   0  0  0  0  0  0  0  0  0  0  0  0
    7.2357   -1.8100  -20.3329 C   0  0  0  0  0  0  0  0  0  0  0  0
    6.0213   -2.0731  -20.9715 C   0  0  0  0  0  0  0  0  0  0  0  0
    5.7447   -3.3472  -21.5079 C   0  0  0  0  0  0  0  0  0  0  0  0
    6.6879   -4.3772  -21.3942 C   0  0  0  0  0  0  0  0  0  0  0  0
    9.4899   -2.9429  -18.1493 N   0  0  0  0  0  0  0  0  0  0  0  0
   10.4546   -1.9963  -17.6071 O   0  0  0  0  0  0  0  0  0  0  0  0
    8.6016   -2.5647  -17.8081 H   0  0  0  0  0  0  0  0  0  0  0  0
   11.0019   -2.5715  -17.0374 H   0  0  0  0  0  0  0  0  0  0  0  0
    2.6655   -2.6184  -20.6190 C   0  0  0  0  0  0  0  0  0  0  0  0
    3.2070   -2.9219  -19.3681 C   0  0  0  0  0  0  0  0  0  0  0  0
    2.7023   -2.2689  -18.2572 C   0  0  0  0  0  0  0  0  0  0  0  0
    1.7138   -1.3514  -18.3103 N   0  0  0  0  0  0  0  0  0  0  0  0
    1.2158   -1.0653  -19.5327 C   0  0  0  0  0  0  0  0  0  0  0  0
    1.6543   -1.6607  -20.7027 C   0  0  0  0  0  0  0  0  0  0  0  0
    2.4556   -4.8334  -24.9023 C   0  0  0  0  0  0  0  0  0  0  0  0
    2.1557   -6.3174  -24.7173 C   0  0  0  0  0  0  0  0  0  0  0  0
    1.4067   -6.5540  -23.5260 O   0  0  0  0  0  0  0  0  0  0  0  0
    1.8656   -6.0566  -22.8123 H   0  0  0  0  0  0  0  0  0  0  0  0
  6  7  1  0  0  0
  7  8  1  0  0  0
  8  9  2  0  0  0
  9 10  1  0  0  0
  6 10  1  0  0  0
 10 15  1  0  0  0
 15 16  1  0  0  0
  9 11  1  0  0  0
 11 12  2  0  0  0
 12 13  1  0  0  0
 13 14  2  0  0  0
  8 14  1  0  0  0
 13  1  1  0  0  0
  1  2  2  0  0  0
  2  3  1  0  0  0
  3  4  1  0  0  0
  4  5  2  0  0  0
  1  5  1  0  0  0
  5 19  1  0  0  0
 19 20  2  0  0  0
 20 21  1  0  0  0
 21 22  2  0  0  0
 22 23  1  0  0  0
 23 24  2  0  0  0
 19 24  1  0  0  0
  3 25  1  0  0  0
 25 26  1  0  0  0
 26 27  1  0  0  0
 15 17  1  0  0  0
 16 18  1  0  0  0
 27 28  1  0  0  0
M  END
> <minimizedAffinity>
-9.31332

$$$$
mol_87623644_15


 30 34  0  0  0  0  0  0  0  0999 V2000
    0.0572   -2.9824  -21.7622 N   0  0  0  0  0  0  0  0  0  0  0  0
    1.1909   -2.6324  -21.0851 C   0  0  0  0  0  0  0  0  0  0  0  0
    2.2369   -3.2188  -21.7427 C   0  0  0  0  0  0  0  0  0  0  0  0
    1.6354   -3.9301  -22.8208 C   0  0  0  0  0  0  0  0  0  0  0  0
    0.3056   -3.7288  -22.8547 N   0  0  0  0  0  0  0  0  0  0  0  0
    3.6181   -3.0764  -21.3443 C   0  0  0  0  0  0  0  0  0  0  0  0
    3.9138   -2.7666  -20.0082 C   0  0  0  0  0  0  0  0  0  0  0  0
    5.2357   -2.5741  -19.6477 C   0  0  0  0  0  0  0  0  0  0  0  0
    6.2378   -2.6938  -20.6021 C   0  0  0  0  0  0  0  0  0  0  0  0
    5.9827   -3.0140  -21.9236 C   0  0  0  0  0  0  0  0  0  0  0  0
    4.6515   -3.2098  -22.2947 C   0  0  0  0  0  0  0  0  0  0  0  0
    7.5075   -2.4105  -19.9575 C   0  0  0  0  0  0  0  0  0  0  0  0
    8.6403   -2.4127  -20.5872 N   0  0  0  0  0  0  0  0  0  0  0  0
    9.6840   -2.0956  -19.7121 O   0  0  0  0  0  0  0  0  0  0  0  0
    7.2785   -2.1181  -18.4933 C   0  0  0  0  0  0  0  0  0  0  0  0
    5.7591   -2.2151  -18.2956 C   0  0  0  0  0  0  0  0  0  0  0  0
   10.4608   -2.1131  -20.3013 H   0  0  0  0  0  0  0  0  0  0  0  0
   -5.1958   -1.9338  -20.4450 C   0  0  0  0  0  0  0  0  0  0  0  0
   -3.7070   -1.9767  -20.0950 C   0  0  0  0  0  0  0  0  0  0  0  0
   -2.9222   -1.0125  -21.0075 C   0  0  0  0  0  0  0  0  0  0  0  0
   -1.4082   -1.2355  -20.9511 C   0  0  0  0  0  0  0  0  0  0  0  0
   -1.1885   -2.6427  -21.2265 N   0  0  0  0  0  0  0  0  0  0  0  0
   -1.6596   -3.5009  -20.1548 C   0  0  0  0  0  0  0  0  0  0  0  0
   -3.1871   -3.4242  -20.1851 C   0  0  0  0  0  0  0  0  0  0  0  0
    2.3376   -4.7867  -23.7711 C   0  0  0  0  0  0  0  0  0  0  0  0
    2.6862   -6.0926  -23.4372 C   0  0  0  0  0  0  0  0  0  0  0  0
    3.2213   -6.8954  -24.4316 C   0  0  0  0  0  0  0  0  0  0  0  0
    3.4352   -6.4860  -25.7023 N   0  0  0  0  0  0  0  0  0  0  0  0
    3.1128   -5.2088  -25.9923 C   0  0  0  0  0  0  0  0  0  0  0  0
    2.5703   -4.3303  -25.0726 C   0  0  0  0  0  0  0  0  0  0  0  0
 18 19  1  0  0  0
 19 20  1  0  0  0
 20 21  1  0  0  0
 21 22  1  0  0  0
 22 23  1  0  0  0
 23 24  1  0  0  0
 19 24  1  0  0  0
 22  1  1  0  0  0
  1  2  1  0  0  0
  2  3  2  0  0  0
  3  4  1  0  0  0
  4  5  2  0  0  0
  1  5  1  0  0  0
  4 25  1  0  0  0
 25 26  2  0  0  0
 26 27  1  0  0  0
 27 28  2  0  0  0
 28 29  1  0  0  0
 29 30  2  0  0  0
 25 30  1  0  0  0
  3  6  1  0  0  0
  6  7  2  0  0  0
  7  8  1  0  0  0
  8  9  2  0  0  0
  9 10  1  0  0  0
 10 11  2  0  0  0
  6 11  1  0  0  0
  9 12  1  0  0  0
 12 13  2  0  0  0
 13 14  1  0  0  0
 12 15  1  0  0  0
 15 16  1  0  0  0
  8 16  1  0  0  0
 14 17  1  0  0  0
M  END
> <minimizedAffinity>
-10.68805

$$$$
mol_87623644_15


 30 34  0  0  0  0  0  0  0  0999 V2000
    4.3157   -3.6422  -23.1277 N   0  0  0  0  0  0  0  0  0  0  0  0
    2.9530   -3.7313  -23.1635 C   0  0  0  0  0  0  0  0  0  0  0  0
    2.4974   -3.2522  -21.9663 C   0  0  0  0  0  0  0  0  0  0  0  0
    3.6741   -2.8986  -21.2450 C   0  0  0  0  0  0  0  0  0  0  0  0
    4.7775   -3.0885  -21.9909 N   0  0  0  0  0  0  0  0  0  0  0  0
    1.0989   -3.1643  -21.6155 C   0  0  0  0  0  0  0  0  0  0  0  0
    0.5062   -1.8988  -21.4880 C   0  0  0  0  0  0  0  0  0  0  0  0
   -0.8181   -1.8220  -21.0947 C   0  0  0  0  0  0  0  0  0  0  0  0
   -1.5329   -2.9854  -20.8396 C   0  0  0  0  0  0  0  0  0  0  0  0
   -0.9844   -4.2486  -20.9713 C   0  0  0  0  0  0  0  0  0  0  0  0
    0.3510   -4.3340  -21.3680 C   0  0  0  0  0  0  0  0  0  0  0  0
   -2.8699   -2.6072  -20.4185 C   0  0  0  0  0  0  0  0  0  0  0  0
   -3.7782   -3.4674  -20.0798 N   0  0  0  0  0  0  0  0  0  0  0  0
   -4.9571   -2.8109  -19.7124 O   0  0  0  0  0  0  0  0  0  0  0  0
   -3.0007   -1.1024  -20.4374 C   0  0  0  0  0  0  0  0  0  0  0  0
   -1.6239   -0.5835  -20.8759 C   0  0  0  0  0  0  0  0  0  0  0  0
   -5.5402   -3.5535  -19.4682 H   0  0  0  0  0  0  0  0  0  0  0  0
    6.9991   -5.1182  -27.7157 C   0  0  0  0  0  0  0  0  0  0  0  0
    6.6183   -5.3454  -26.2515 C   0  0  0  0  0  0  0  0  0  0  0  0
    5.0969   -5.5668  -26.1299 C   0  0  0  0  0  0  0  0  0  0  0  0
    4.5926   -5.4723  -24.6870 C   0  0  0  0  0  0  0  0  0  0  0  0
    5.0625   -4.2015  -24.1688 N   0  0  0  0  0  0  0  0  0  0  0  0
    6.5023   -4.1713  -23.9873 C   0  0  0  0  0  0  0  0  0  0  0  0
    7.1106   -4.1661  -25.3908 C   0  0  0  0  0  0  0  0  0  0  0  0
    3.7140   -2.4082  -19.8711 C   0  0  0  0  0  0  0  0  0  0  0  0
    2.8543   -2.9189  -18.9024 C   0  0  0  0  0  0  0  0  0  0  0  0
    3.0412   -2.5137  -17.5907 C   0  0  0  0  0  0  0  0  0  0  0  0
    3.9995   -1.6457  -17.1954 N   0  0  0  0  0  0  0  0  0  0  0  0
    4.8020   -1.1461  -18.1575 C   0  0  0  0  0  0  0  0  0  0  0  0
    4.6991   -1.4901  -19.4928 C   0  0  0  0  0  0  0  0  0  0  0  0
 18 19  1  0  0  0
 19 20  1  0  0  0
 20 21  1  0  0  0
 21 22  1  0  0  0
 22 23  1  0  0  0
 23 24  1  0  0  0
 19 24  1  0  0  0
 22  1  1  0  0  0
  1  2  1  0  0  0
  2  3  2  0  0  0
  3  4  1  0  0  0
  4  5  2  0  0  0
  1  5  1  0  0  0
  4 25  1  0  0  0
 25 26  2  0  0  0
 26 27  1  0  0  0
 27 28  2  0  0  0
 28 29  1  0  0  0
 29 30  2  0  0  0
 25 30  1  0  0  0
  3  6  1  0  0  0
  6  7  2  0  0  0
  7  8  1  0  0  0
  8  9  2  0  0  0
  9 10  1  0  0  0
 10 11  2  0  0  0
  6 11  1  0  0  0
  9 12  1  0  0  0
 12 13  2  0  0  0
 13 14  1  0  0  0
 12 15  1  0  0  0
 15 16  1  0  0  0
  8 16  1  0  0  0
 14 17  1  0  0  0
M  END
> <minimizedAffinity>
-10.67419

$$$$
mol_87623644_15


 30 34  0  0  0  0  0  0  0  0999 V2000
   -0.8478   -2.7337  -20.6598 N   0  0  0  0  0  0  0  0  0  0  0  0
   -0.2299   -3.3481  -21.7118 C   0  0  0  0  0  0  0  0  0  0  0  0
    1.1124   -3.3155  -21.4513 C   0  0  0  0  0  0  0  0  0  0  0  0
    1.2236   -2.6390  -20.2023 C   0  0  0  0  0  0  0  0  0  0  0  0
    0.0114   -2.3400  -19.7012 N   0  0  0  0  0  0  0  0  0  0  0  0
    2.1146   -3.8815  -22.3241 C   0  0  0  0  0  0  0  0  0  0  0  0
    1.7505   -4.9155  -23.2000 C   0  0  0  0  0  0  0  0  0  0  0  0
    2.7288   -5.4919  -23.9905 C   0  0  0  0  0  0  0  0  0  0  0  0
    4.0398   -5.0402  -23.9088 C   0  0  0  0  0  0  0  0  0  0  0  0
    4.4296   -4.0126  -23.0684 C   0  0  0  0  0  0  0  0  0  0  0  0
    3.4481   -3.4260  -22.2681 C   0  0  0  0  0  0  0  0  0  0  0  0
    4.8465   -5.8377  -24.8149 C   0  0  0  0  0  0  0  0  0  0  0  0
    6.1258   -5.6817  -24.9520 N   0  0  0  0  0  0  0  0  0  0  0  0
    6.6303   -6.5950  -25.8831 O   0  0  0  0  0  0  0  0  0  0  0  0
    3.9684   -6.8393  -25.5273 C   0  0  0  0  0  0  0  0  0  0  0  0
    2.5587   -6.6130  -24.9627 C   0  0  0  0  0  0  0  0  0  0  0  0
    7.5835   -6.3889  -25.8798 H   0  0  0  0  0  0  0  0  0  0  0  0
   -6.2407   -2.2327  -21.7059 C   0  0  0  0  0  0  0  0  0  0  0  0
   -5.0207   -2.0089  -20.8103 C   0  0  0  0  0  0  0  0  0  0  0  0
   -3.9977   -1.1052  -21.5281 C   0  0  0  0  0  0  0  0  0  0  0  0
   -2.6245   -1.1013  -20.8502 C   0  0  0  0  0  0  0  0  0  0  0  0
   -2.2228   -2.4897  -20.7255 N   0  0  0  0  0  0  0  0  0  0  0  0
   -3.0305   -3.2199  -19.7656 C   0  0  0  0  0  0  0  0  0  0  0  0
   -4.4172   -3.3643  -20.3952 C   0  0  0  0  0  0  0  0  0  0  0  0
    2.4725   -2.2860  -19.5348 C   0  0  0  0  0  0  0  0  0  0  0  0
    2.9654   -3.0541  -18.4835 C   0  0  0  0  0  0  0  0  0  0  0  0
    4.2235   -2.7477  -17.9906 C   0  0  0  0  0  0  0  0  0  0  0  0
    4.9971   -1.7433  -18.4604 N   0  0  0  0  0  0  0  0  0  0  0  0
    4.4849   -0.9984  -19.4615 C   0  0  0  0  0  0  0  0  0  0  0  0
    3.2423   -1.2255  -20.0239 C   0  0  0  0  0  0  0  0  0  0  0  0
 18 19  1  0  0  0
 19 20  1  0  0  0
 20 21  1  0  0  0
 21 22  1  0  0  0
 22 23  1  0  0  0
 23 24  1  0  0  0
 19 24  1  0  0  0
 22  1  1  0  0  0
  1  2  1  0  0  0
  2  3  2  0  0  0
  3  4  1  0  0  0
  4  5  2  0  0  0
  1  5  1  0  0  0
  4 25  1  0  0  0
 25 26  2  0  0  0
 26 27  1  0  0  0
 27 28  2  0  0  0
 28 29  1  0  0  0
 29 30  2  0  0  0
 25 30  1  0  0  0
  3  6  1  0  0  0
  6  7  2  0  0  0
  7  8  1  0  0  0
  8  9  2  0  0  0
  9 10  1  0  0  0
 10 11  2  0  0  0
  6 11  1  0  0  0
  9 12  1  0  0  0
 12 13  2  0  0  0
 13 14  1  0  0  0
 12 15  1  0  0  0
 15 16  1  0  0  0
  8 16  1  0  0  0
 14 17  1  0  0  0
M  END
> <minimizedAffinity>
-10.14825

$$$$
