mol_11531192_0


 30 34  0  0  0  0  0  0  0  0999 V2000
   -4.3988   -0.8647    7.2823 N   0  0  0  0  0  0  0  0  0  0  0  0
   -3.5014   -1.8361    6.9399 C   0  0  0  0  0  0  0  0  0  0  0  0
   -2.5092   -1.8022    7.8806 C   0  0  0  0  0  0  0  0  0  0  0  0
   -2.8849   -0.7520    8.7671 C   0  0  0  0  0  0  0  0  0  0  0  0
   -4.0737   -0.2254    8.4215 N   0  0  0  0  0  0  0  0  0  0  0  0
   -1.3711   -2.6918    7.8810 C   0  0  0  0  0  0  0  0  0  0  0  0
   -0.9518   -3.2629    6.6699 C   0  0  0  0  0  0  0  0  0  0  0  0
    0.1020   -4.1593    6.6878 C   0  0  0  0  0  0  0  0  0  0  0  0
    0.7239   -4.4725    7.8897 C   0  0  0  0  0  0  0  0  0  0  0  0
    0.3466   -3.9156    9.0986 C   0  0  0  0  0  0  0  0  0  0  0  0
   -0.7156   -3.0103    9.0884 C   0  0  0  0  0  0  0  0  0  0  0  0
    1.7609   -5.4513    7.6165 C   0  0  0  0  0  0  0  0  0  0  0  0
    2.5095   -5.9696    8.5388 N   0  0  0  0  0  0  0  0  0  0  0  0
    3.4067   -6.8852    7.9798 O   0  0  0  0  0  0  0  0  0  0  0  0
    1.8009   -5.7477    6.1359 C   0  0  0  0  0  0  0  0  0  0  0  0
    0.6822   -4.8931    5.5233 C   0  0  0  0  0  0  0  0  0  0  0  0
    3.8877   -7.2090    8.7639 H   0  0  0  0  0  0  0  0  0  0  0  0
   -8.9983    0.5573    4.5895 C   0  0  0  0  0  0  0  0  0  0  0  0
   -7.5551    0.0498    4.6061 C   0  0  0  0  0  0  0  0  0  0  0  0
   -7.4757   -1.2908    5.3643 C   0  0  0  0  0  0  0  0  0  0  0  0
   -6.0405   -1.6973    5.7110 C   0  0  0  0  0  0  0  0  0  0  0  0
   -5.4507   -0.5710    6.4096 N   0  0  0  0  0  0  0  0  0  0  0  0
   -5.2386    0.5739    5.5430 C   0  0  0  0  0  0  0  0  0  0  0  0
   -6.6275    1.1216    5.2098 C   0  0  0  0  0  0  0  0  0  0  0  0
   -2.0992   -0.2738    9.9002 C   0  0  0  0  0  0  0  0  0  0  0  0
   -2.3280   -0.7565   11.1858 C   0  0  0  0  0  0  0  0  0  0  0  0
   -1.4546   -0.3689   12.1891 C   0  0  0  0  0  0  0  0  0  0  0  0
   -0.4007    0.4565   11.9988 N   0  0  0  0  0  0  0  0  0  0  0  0
   -0.2172    0.9304   10.7494 C   0  0  0  0  0  0  0  0  0  0  0  0
   -1.0300    0.6008    9.6804 C   0  0  0  0  0  0  0  0  0  0  0  0
 18 19  1  0  0  0
 19 20  1  0  0  0
 20 21  1  0  0  0
 21 22  1  0  0  0
 22 23  1  0  0  0
 23 24  1  0  0  0
 19 24  1  0  0  0
 22  1  1  0  0  0
  1  2  1  0  0  0
  2  3  2  0  0  0
  3  4  1  0  0  0
  4  5  2  0  0  0
  1  5  1  0  0  0
  4 25  1  0  0  0
 25 26  2  0  0  0
 26 27  1  0  0  0
 27 28  2  0  0  0
 28 29  1  0  0  0
 29 30  2  0  0  0
 25 30  1  0  0  0
  3  6  1  0  0  0
  6  7  2  0  0  0
  7  8  1  0  0  0
  8  9  2  0  0  0
  9 10  1  0  0  0
 10 11  2  0  0  0
  6 11  1  0  0  0
  9 12  1  0  0  0
 12 13  2  0  0  0
 13 14  1  0  0  0
 12 15  1  0  0  0
 15 16  1  0  0  0
  8 16  1  0  0  0
 14 17  1  0  0  0
M  END
> <minimizedAffinity>
-10.74770

$$$$
mol_11531192_0


 30 34  0  0  0  0  0  0  0  0999 V2000
   -4.1991   -1.2753    7.5185 N   0  0  0  0  0  0  0  0  0  0  0  0
   -3.2371   -2.1684    7.1404 C   0  0  0  0  0  0  0  0  0  0  0  0
   -2.3276   -2.2200    8.1605 C   0  0  0  0  0  0  0  0  0  0  0  0
   -2.8181   -1.2998    9.1314 C   0  0  0  0  0  0  0  0  0  0  0  0
   -3.9955   -0.7720    8.7503 N   0  0  0  0  0  0  0  0  0  0  0  0
   -1.1574   -3.0669    8.1520 C   0  0  0  0  0  0  0  0  0  0  0  0
    0.0432   -2.5761    8.6872 C   0  0  0  0  0  0  0  0  0  0  0  0
    1.1736   -3.3713    8.6222 C   0  0  0  0  0  0  0  0  0  0  0  0
    1.1019   -4.6299    8.0391 C   0  0  0  0  0  0  0  0  0  0  0  0
   -0.0687   -5.1506    7.5169 C   0  0  0  0  0  0  0  0  0  0  0  0
   -1.2132   -4.3543    7.5790 C   0  0  0  0  0  0  0  0  0  0  0  0
    2.4281   -5.2195    8.0796 C   0  0  0  0  0  0  0  0  0  0  0  0
    2.7022   -6.3866    7.5874 N   0  0  0  0  0  0  0  0  0  0  0  0
    4.0576   -6.6827    7.7633 O   0  0  0  0  0  0  0  0  0  0  0  0
    3.3852   -4.2681    8.7583 C   0  0  0  0  0  0  0  0  0  0  0  0
    2.5453   -3.0307    9.1057 C   0  0  0  0  0  0  0  0  0  0  0  0
    4.1344   -7.5593    7.3430 H   0  0  0  0  0  0  0  0  0  0  0  0
   -8.5825    0.4164    4.6283 C   0  0  0  0  0  0  0  0  0  0  0  0
   -7.1596   -0.1405    4.7063 C   0  0  0  0  0  0  0  0  0  0  0  0
   -7.1681   -1.5140    5.4076 C   0  0  0  0  0  0  0  0  0  0  0  0
   -5.7697   -1.9837    5.8188 C   0  0  0  0  0  0  0  0  0  0  0  0
   -5.1873   -0.9090    6.6000 N   0  0  0  0  0  0  0  0  0  0  0  0
   -4.8877    0.2637    5.7988 C   0  0  0  0  0  0  0  0  0  0  0  0
   -6.2362    0.8723    5.4100 C   0  0  0  0  0  0  0  0  0  0  0  0
   -2.1484   -0.9411   10.3775 C   0  0  0  0  0  0  0  0  0  0  0  0
   -1.5089    0.2873   10.5197 C   0  0  0  0  0  0  0  0  0  0  0  0
   -1.0185    0.6222   11.7715 C   0  0  0  0  0  0  0  0  0  0  0  0
   -1.1136   -0.1742   12.8600 N   0  0  0  0  0  0  0  0  0  0  0  0
   -1.7146   -1.3694   12.6886 C   0  0  0  0  0  0  0  0  0  0  0  0
   -2.2395   -1.7944   11.4820 C   0  0  0  0  0  0  0  0  0  0  0  0
 18 19  1  0  0  0
 19 20  1  0  0  0
 20 21  1  0  0  0
 21 22  1  0  0  0
 22 23  1  0  0  0
 23 24  1  0  0  0
 19 24  1  0  0  0
 22  1  1  0  0  0
  1  2  1  0  0  0
  2  3  2  0  0  0
  3  4  1  0  0  0
  4  5  2  0  0  0
  1  5  1  0  0  0
  4 25  1  0  0  0
 25 26  2  0  0  0
 26 27  1  0  0  0
 27 28  2  0  0  0
 28 29  1  0  0  0
 29 30  2  0  0  0
 25 30  1  0  0  0
  3  6  1  0  0  0
  6  7  2  0  0  0
  7  8  1  0  0  0
  8  9  2  0  0  0
  9 10  1  0  0  0
 10 11  2  0  0  0
  6 11  1  0  0  0
  9 12  1  0  0  0
 12 13  2  0  0  0
 13 14  1  0  0  0
 12 15  1  0  0  0
 15 16  1  0  0  0
  8 16  1  0  0  0
 14 17  1  0  0  0
M  END
> <minimizedAffinity>
-10.67305

$$$$
mol_11531192_0


 30 34  0  0  0  0  0  0  0  0999 V2000
   -4.1239   -1.2742    7.5695 N   0  0  0  0  0  0  0  0  0  0  0  0
   -3.0909   -2.0569    7.1376 C   0  0  0  0  0  0  0  0  0  0  0  0
   -2.1808   -2.1025    8.1575 C   0  0  0  0  0  0  0  0  0  0  0  0
   -2.7464   -1.2942    9.1855 C   0  0  0  0  0  0  0  0  0  0  0  0
   -3.9633   -0.8407    8.8338 N   0  0  0  0  0  0  0  0  0  0  0  0
   -0.9445   -2.8472    8.0988 C   0  0  0  0  0  0  0  0  0  0  0  0
   -0.6899   -3.6591    6.9831 C   0  0  0  0  0  0  0  0  0  0  0  0
    0.4693   -4.4142    6.9616 C   0  0  0  0  0  0  0  0  0  0  0  0
    1.3545   -4.3539    8.0303 C   0  0  0  0  0  0  0  0  0  0  0  0
    1.1423   -3.5521    9.1376 C   0  0  0  0  0  0  0  0  0  0  0  0
   -0.0248   -2.7873    9.1663 C   0  0  0  0  0  0  0  0  0  0  0  0
    2.4528   -5.2628    7.7550 C   0  0  0  0  0  0  0  0  0  0  0  0
    3.4367   -5.4575    8.5757 N   0  0  0  0  0  0  0  0  0  0  0  0
    4.3339   -6.3909    8.0469 O   0  0  0  0  0  0  0  0  0  0  0  0
    2.2457   -5.9148    6.4083 C   0  0  0  0  0  0  0  0  0  0  0  0
    0.9133   -5.3552    5.8899 C   0  0  0  0  0  0  0  0  0  0  0  0
    5.0022   -6.4593    8.7537 H   0  0  0  0  0  0  0  0  0  0  0  0
   -8.6105    0.3000    4.7729 C   0  0  0  0  0  0  0  0  0  0  0  0
   -7.1660   -0.2018    4.8207 C   0  0  0  0  0  0  0  0  0  0  0  0
   -7.1107   -1.5881    5.4940 C   0  0  0  0  0  0  0  0  0  0  0  0
   -5.6893   -2.0103    5.8769 C   0  0  0  0  0  0  0  0  0  0  0  0
   -5.1385   -0.9290    6.6718 N   0  0  0  0  0  0  0  0  0  0  0  0
   -4.8964    0.2702    5.8907 C   0  0  0  0  0  0  0  0  0  0  0  0
   -6.2731    0.8326    5.5324 C   0  0  0  0  0  0  0  0  0  0  0  0
   -2.1094   -0.9670   10.4571 C   0  0  0  0  0  0  0  0  0  0  0  0
   -1.3689    0.2022   10.6081 C   0  0  0  0  0  0  0  0  0  0  0  0
   -0.9127    0.5217   11.8767 C   0  0  0  0  0  0  0  0  0  0  0  0
   -1.1333   -0.2364   12.9742 N   0  0  0  0  0  0  0  0  0  0  0  0
   -1.8311   -1.3768   12.7954 C   0  0  0  0  0  0  0  0  0  0  0  0
   -2.3320   -1.7819   11.5719 C   0  0  0  0  0  0  0  0  0  0  0  0
 18 19  1  0  0  0
 19 20  1  0  0  0
 20 21  1  0  0  0
 21 22  1  0  0  0
 22 23  1  0  0  0
 23 24  1  0  0  0
 19 24  1  0  0  0
 22  1  1  0  0  0
  1  2  1  0  0  0
  2  3  2  0  0  0
  3  4  1  0  0  0
  4  5  2  0  0  0
  1  5  1  0  0  0
  4 25  1  0  0  0
 25 26  2  0  0  0
 26 27  1  0  0  0
 27 28  2  0  0  0
 28 29  1  0  0  0
 29 30  2  0  0  0
 25 30  1  0  0  0
  3  6  1  0  0  0
  6  7  2  0  0  0
  7  8  1  0  0  0
  8  9  2  0  0  0
  9 10  1  0  0  0
 10 11  2  0  0  0
  6 11  1  0  0  0
  9 12  1  0  0  0
 12 13  2  0  0  0
 13 14  1  0  0  0
 12 15  1  0  0  0
 15 16  1  0  0  0
  8 16  1  0  0  0
 14 17  1  0  0  0
M  END
> <minimizedAffinity>
-10.40400

$$$$
mol_44587190_1


 30 34  0  0  0  0  0  0  0  0999 V2000
   -4.1972   -1.2713    7.5110 N   0  0  0  0  0  0  0  0  0  0  0  0
   -3.2367   -2.1638    7.1274 C   0  0  0  0  0  0  0  0  0  0  0  0
   -2.3236   -2.2179    8.1442 C   0  0  0  0  0  0  0  0  0  0  0  0
   -2.8104   -1.2997    9.1189 C   0  0  0  0  0  0  0  0  0  0  0  0
   -3.9890   -0.7708    8.7432 N   0  0  0  0  0  0  0  0  0  0  0  0
   -1.1537   -3.0650    8.1296 C   0  0  0  0  0  0  0  0  0  0  0  0
    0.0463   -2.5795    8.6711 C   0  0  0  0  0  0  0  0  0  0  0  0
    1.1766   -3.3744    8.6004 C   0  0  0  0  0  0  0  0  0  0  0  0
    1.1053   -4.6276    8.0055 C   0  0  0  0  0  0  0  0  0  0  0  0
   -0.0646   -5.1431    7.4768 C   0  0  0  0  0  0  0  0  0  0  0  0
   -1.2090   -4.3471    7.5447 C   0  0  0  0  0  0  0  0  0  0  0  0
    2.4313   -5.2179    8.0425 C   0  0  0  0  0  0  0  0  0  0  0  0
    2.7058   -6.3805    7.5400 N   0  0  0  0  0  0  0  0  0  0  0  0
    4.0609   -6.6786    7.7152 O   0  0  0  0  0  0  0  0  0  0  0  0
    3.3877   -4.2732    8.7315 C   0  0  0  0  0  0  0  0  0  0  0  0
    2.5476   -3.0388    9.0890 C   0  0  0  0  0  0  0  0  0  0  0  0
    4.1380   -7.5513    7.2869 H   0  0  0  0  0  0  0  0  0  0  0  0
   -8.5915    0.4255    4.6405 C   0  0  0  0  0  0  0  0  0  0  0  0
   -7.1676   -0.1294    4.7121 C   0  0  0  0  0  0  0  0  0  0  0  0
   -6.2438    0.8819    5.4175 C   0  0  0  0  0  0  0  0  0  0  0  0
   -4.8932    0.2739    5.7999 C   0  0  0  0  0  0  0  0  0  0  0  0
   -5.1886   -0.9027    6.5969 N   0  0  0  0  0  0  0  0  0  0  0  0
   -5.7715   -1.9751    5.8128 C   0  0  0  0  0  0  0  0  0  0  0  0
   -7.1718   -1.5059    5.4076 C   0  0  0  0  0  0  0  0  0  0  0  0
   -2.1362   -0.9439   10.3634 C   0  0  0  0  0  0  0  0  0  0  0  0
   -1.4953    0.2838   10.5058 C   0  0  0  0  0  0  0  0  0  0  0  0
   -1.0003    0.6157   11.7565 C   0  0  0  0  0  0  0  0  0  0  0  0
   -1.0922   -0.1827   12.8439 N   0  0  0  0  0  0  0  0  0  0  0  0
   -1.6947   -1.3771   12.6721 C   0  0  0  0  0  0  0  0  0  0  0  0
   -2.2240   -1.7994   11.4665 C   0  0  0  0  0  0  0  0  0  0  0  0
 18 19  1  0  0  0
 19 20  1  0  0  0
 20 21  1  0  0  0
 21 22  1  0  0  0
 22 23  1  0  0  0
 23 24  1  0  0  0
 19 24  1  0  0  0
 22  1  1  0  0  0
  1  2  1  0  0  0
  2  3  2  0  0  0
  3  4  1  0  0  0
  4  5  2  0  0  0
  1  5  1  0  0  0
  4 25  1  0  0  0
 25 26  2  0  0  0
 26 27  1  0  0  0
 27 28  2  0  0  0
 28 29  1  0  0  0
 29 30  2  0  0  0
 25 30  1  0  0  0
  3  6  1  0  0  0
  6  7  2  0  0  0
  7  8  1  0  0  0
  8  9  2  0  0  0
  9 10  1  0  0  0
 10 11  2  0  0  0
  6 11  1  0  0  0
  9 12  1  0  0  0
 12 13  2  0  0  0
 13 14  1  0  0  0
 12 15  1  0  0  0
 15 16  1  0  0  0
  8 16  1  0  0  0
 14 17  1  0  0  0
M  END
> <minimizedAffinity>
-10.59725

$$$$
mol_44587190_1


 30 34  0  0  0  0  0  0  0  0999 V2000
   -0.1902   -1.9031    9.7694 N   0  0  0  0  0  0  0  0  0  0  0  0
   -1.3938   -1.3506    9.4342 C   0  0  0  0  0  0  0  0  0  0  0  0
   -1.7726   -1.9245    8.2520 C   0  0  0  0  0  0  0  0  0  0  0  0
   -0.7145   -2.8220    7.9283 C   0  0  0  0  0  0  0  0  0  0  0  0
    0.2202   -2.8414    8.8957 N   0  0  0  0  0  0  0  0  0  0  0  0
   -3.0066   -1.6155    7.5676 C   0  0  0  0  0  0  0  0  0  0  0  0
   -3.8980   -2.6563    7.2657 C   0  0  0  0  0  0  0  0  0  0  0  0
   -5.0498   -2.3604    6.5585 C   0  0  0  0  0  0  0  0  0  0  0  0
   -5.3048   -1.0523    6.1670 C   0  0  0  0  0  0  0  0  0  0  0  0
   -4.4559   -0.0005    6.4620 C   0  0  0  0  0  0  0  0  0  0  0  0
   -3.2920   -0.2912    7.1754 C   0  0  0  0  0  0  0  0  0  0  0  0
   -6.5508   -1.0418    5.4219 C   0  0  0  0  0  0  0  0  0  0  0  0
   -7.0542    0.0295    4.8940 N   0  0  0  0  0  0  0  0  0  0  0  0
   -8.2493   -0.2695    4.2323 O   0  0  0  0  0  0  0  0  0  0  0  0
   -7.1214   -2.4394    5.3686 C   0  0  0  0  0  0  0  0  0  0  0  0
   -6.1082   -3.3174    6.1168 C   0  0  0  0  0  0  0  0  0  0  0  0
   -8.5096    0.5987    3.8725 H   0  0  0  0  0  0  0  0  0  0  0  0
    3.2438   -0.4622   13.8389 C   0  0  0  0  0  0  0  0  0  0  0  0
    1.9242   -0.3115   13.0796 C   0  0  0  0  0  0  0  0  0  0  0  0
    2.2003    0.1106   11.6237 C   0  0  0  0  0  0  0  0  0  0  0  0
    0.9649   -0.0214   10.7313 C   0  0  0  0  0  0  0  0  0  0  0  0
    0.5113   -1.3936   10.8661 N   0  0  0  0  0  0  0  0  0  0  0  0
   -0.0523   -1.6684   12.1743 C   0  0  0  0  0  0  0  0  0  0  0  0
    1.1117   -1.6193   13.1682 C   0  0  0  0  0  0  0  0  0  0  0  0
   -0.6176   -3.6177    6.7087 C   0  0  0  0  0  0  0  0  0  0  0  0
   -1.1794   -3.1718    5.5154 C   0  0  0  0  0  0  0  0  0  0  0  0
   -0.9284   -3.9047    4.3667 C   0  0  0  0  0  0  0  0  0  0  0  0
   -0.1806   -5.0308    4.3350 N   0  0  0  0  0  0  0  0  0  0  0  0
    0.3301   -5.4550    5.5091 C   0  0  0  0  0  0  0  0  0  0  0  0
    0.1405   -4.7931    6.7082 C   0  0  0  0  0  0  0  0  0  0  0  0
 18 19  1  0  0  0
 19 20  1  0  0  0
 20 21  1  0  0  0
 21 22  1  0  0  0
 22 23  1  0  0  0
 23 24  1  0  0  0
 19 24  1  0  0  0
 22  1  1  0  0  0
  1  2  1  0  0  0
  2  3  2  0  0  0
  3  4  1  0  0  0
  4  5  2  0  0  0
  1  5  1  0  0  0
  4 25  1  0  0  0
 25 26  2  0  0  0
 26 27  1  0  0  0
 27 28  2  0  0  0
 28 29  1  0  0  0
 29 30  2  0  0  0
 25 30  1  0  0  0
  3  6  1  0  0  0
  6  7  2  0  0  0
  7  8  1  0  0  0
  8  9  2  0  0  0
  9 10  1  0  0  0
 10 11  2  0  0  0
  6 11  1  0  0  0
  9 12  1  0  0  0
 12 13  2  0  0  0
 13 14  1  0  0  0
 12 15  1  0  0  0
 15 16  1  0  0  0
  8 16  1  0  0  0
 14 17  1  0  0  0
M  END
> <minimizedAffinity>
-10.26943

$$$$
mol_44587190_1


 30 34  0  0  0  0  0  0  0  0999 V2000
   -4.1963   -1.1622    6.7791 N   0  0  0  0  0  0  0  0  0  0  0  0
   -3.8201   -0.5241    7.9270 C   0  0  0  0  0  0  0  0  0  0  0  0
   -2.7120   -1.1765    8.3928 C   0  0  0  0  0  0  0  0  0  0  0  0
   -2.4872   -2.2257    7.4555 C   0  0  0  0  0  0  0  0  0  0  0  0
   -3.3692   -2.1692    6.4411 N   0  0  0  0  0  0  0  0  0  0  0  0
   -1.9978   -0.7943    9.5889 C   0  0  0  0  0  0  0  0  0  0  0  0
   -1.9864   -1.6699   10.6852 C   0  0  0  0  0  0  0  0  0  0  0  0
   -1.3498   -1.2713   11.8472 C   0  0  0  0  0  0  0  0  0  0  0  0
   -0.7353   -0.0270   11.9078 C   0  0  0  0  0  0  0  0  0  0  0  0
   -0.7137    0.8533   10.8408 C   0  0  0  0  0  0  0  0  0  0  0  0
   -1.3537    0.4580    9.6651 C   0  0  0  0  0  0  0  0  0  0  0  0
   -0.1835    0.1363   13.2408 C   0  0  0  0  0  0  0  0  0  0  0  0
    0.4338    1.2081   13.6279 N   0  0  0  0  0  0  0  0  0  0  0  0
    0.8426    1.0802   14.9591 O   0  0  0  0  0  0  0  0  0  0  0  0
   -0.4541   -1.1055   14.0572 C   0  0  0  0  0  0  0  0  0  0  0  0
   -1.2450   -2.0356   13.1262 C   0  0  0  0  0  0  0  0  0  0  0  0
    1.2682    1.9411   15.1287 H   0  0  0  0  0  0  0  0  0  0  0  0
   -9.2265    0.4415    5.1810 C   0  0  0  0  0  0  0  0  0  0  0  0
   -7.8063   -0.0336    4.8675 C   0  0  0  0  0  0  0  0  0  0  0  0
   -6.7812    0.9869    5.3981 C   0  0  0  0  0  0  0  0  0  0  0  0
   -5.3538    0.4367    5.3994 C   0  0  0  0  0  0  0  0  0  0  0  0
   -5.3958   -0.7991    6.1596 N   0  0  0  0  0  0  0  0  0  0  0  0
   -6.1073   -1.8562    5.4663 C   0  0  0  0  0  0  0  0  0  0  0  0
   -7.5826   -1.4459    5.4451 C   0  0  0  0  0  0  0  0  0  0  0  0
   -1.4562   -3.2532    7.5605 C   0  0  0  0  0  0  0  0  0  0  0  0
   -0.1236   -2.9122    7.7756 C   0  0  0  0  0  0  0  0  0  0  0  0
    0.7789   -3.9375    8.0079 C   0  0  0  0  0  0  0  0  0  0  0  0
    0.4474   -5.2481    8.0283 N   0  0  0  0  0  0  0  0  0  0  0  0
   -0.8450   -5.5524    7.7912 C   0  0  0  0  0  0  0  0  0  0  0  0
   -1.8219   -4.6032    7.5527 C   0  0  0  0  0  0  0  0  0  0  0  0
 18 19  1  0  0  0
 19 20  1  0  0  0
 20 21  1  0  0  0
 21 22  1  0  0  0
 22 23  1  0  0  0
 23 24  1  0  0  0
 19 24  1  0  0  0
 22  1  1  0  0  0
  1  2  1  0  0  0
  2  3  2  0  0  0
  3  4  1  0  0  0
  4  5  2  0  0  0
  1  5  1  0  0  0
  4 25  1  0  0  0
 25 26  2  0  0  0
 26 27  1  0  0  0
 27 28  2  0  0  0
 28 29  1  0  0  0
 29 30  2  0  0  0
 25 30  1  0  0  0
  3  6  1  0  0  0
  6  7  2  0  0  0
  7  8  1  0  0  0
  8  9  2  0  0  0
  9 10  1  0  0  0
 10 11  2  0  0  0
  6 11  1  0  0  0
  9 12  1  0  0  0
 12 13  2  0  0  0
 13 14  1  0  0  0
 12 15  1  0  0  0
 15 16  1  0  0  0
  8 16  1  0  0  0
 14 17  1  0  0  0
M  END
> <minimizedAffinity>
-10.22405

$$$$
mol_11653652_2


 30 34  0  0  0  0  0  0  0  0999 V2000
   -4.1972   -1.2713    7.5110 N   0  0  0  0  0  0  0  0  0  0  0  0
   -3.2367   -2.1638    7.1274 C   0  0  0  0  0  0  0  0  0  0  0  0
   -2.3236   -2.2179    8.1442 C   0  0  0  0  0  0  0  0  0  0  0  0
   -2.8104   -1.2997    9.1189 C   0  0  0  0  0  0  0  0  0  0  0  0
   -3.9890   -0.7708    8.7432 N   0  0  0  0  0  0  0  0  0  0  0  0
   -1.1537   -3.0650    8.1296 C   0  0  0  0  0  0  0  0  0  0  0  0
    0.0463   -2.5795    8.6711 C   0  0  0  0  0  0  0  0  0  0  0  0
    1.1766   -3.3744    8.6004 C   0  0  0  0  0  0  0  0  0  0  0  0
    1.1053   -4.6276    8.0055 C   0  0  0  0  0  0  0  0  0  0  0  0
   -0.0646   -5.1431    7.4768 C   0  0  0  0  0  0  0  0  0  0  0  0
   -1.2090   -4.3471    7.5447 C   0  0  0  0  0  0  0  0  0  0  0  0
    2.4313   -5.2179    8.0425 C   0  0  0  0  0  0  0  0  0  0  0  0
    2.7058   -6.3805    7.5400 N   0  0  0  0  0  0  0  0  0  0  0  0
    4.0609   -6.6786    7.7152 O   0  0  0  0  0  0  0  0  0  0  0  0
    3.3877   -4.2732    8.7315 C   0  0  0  0  0  0  0  0  0  0  0  0
    2.5476   -3.0388    9.0890 C   0  0  0  0  0  0  0  0  0  0  0  0
    4.1380   -7.5513    7.2869 H   0  0  0  0  0  0  0  0  0  0  0  0
   -8.5915    0.4255    4.6405 C   0  0  0  0  0  0  0  0  0  0  0  0
   -7.1676   -0.1294    4.7121 C   0  0  0  0  0  0  0  0  0  0  0  0
   -6.2438    0.8819    5.4175 C   0  0  0  0  0  0  0  0  0  0  0  0
   -4.8932    0.2739    5.7999 C   0  0  0  0  0  0  0  0  0  0  0  0
   -5.1886   -0.9027    6.5969 N   0  0  0  0  0  0  0  0  0  0  0  0
   -5.7715   -1.9751    5.8128 C   0  0  0  0  0  0  0  0  0  0  0  0
   -7.1718   -1.5059    5.4076 C   0  0  0  0  0  0  0  0  0  0  0  0
   -2.1362   -0.9439   10.3634 C   0  0  0  0  0  0  0  0  0  0  0  0
   -1.4953    0.2838   10.5058 C   0  0  0  0  0  0  0  0  0  0  0  0
   -1.0003    0.6157   11.7565 C   0  0  0  0  0  0  0  0  0  0  0  0
   -1.0922   -0.1827   12.8439 N   0  0  0  0  0  0  0  0  0  0  0  0
   -1.6947   -1.3771   12.6721 C   0  0  0  0  0  0  0  0  0  0  0  0
   -2.2240   -1.7994   11.4665 C   0  0  0  0  0  0  0  0  0  0  0  0
 18 19  1  0  0  0
 19 20  1  0  0  0
 20 21  1  0  0  0
 21 22  1  0  0  0
 22 23  1  0  0  0
 23 24  1  0  0  0
 19 24  1  0  0  0
 22  1  1  0  0  0
  1  2  1  0  0  0
  2  3  2  0  0  0
  3  4  1  0  0  0
  4  5  2  0  0  0
  1  5  1  0  0  0
  4 25  1  0  0  0
 25 26  2  0  0  0
 26 27  1  0  0  0
 27 28  2  0  0  0
 28 29  1  0  0  0
 29 30  2  0  0  0
 25 30  1  0  0  0
  3  6  1  0  0  0
  6  7  2  0  0  0
  7  8  1  0  0  0
  8  9  2  0  0  0
  9 10  1  0  0  0
 10 11  2  0  0  0
  6 11  1  0  0  0
  9 12  1  0  0  0
 12 13  2  0  0  0
 13 14  1  0  0  0
 12 15  1  0  0  0
 15 16  1  0  0  0
  8 16  1  0  0  0
 14 17  1  0  0  0
M  END
> <minimizedAffinity>
-10.59725

$$$$
mol_11653652_2


 30 34  0  0  0  0  0  0  0  0999 V2000
   -0.1902   -1.9031    9.7694 N   0  0  0  0  0  0  0  0  0  0  0  0
   -1.3938   -1.3506    9.4342 C   0  0  0  0  0  0  0  0  0  0  0  0
   -1.7726   -1.9245    8.2520 C   0  0  0  0  0  0  0  0  0  0  0  0
   -0.7145   -2.8220    7.9283 C   0  0  0  0  0  0  0  0  0  0  0  0
    0.2202   -2.8414    8.8957 N   0  0  0  0  0  0  0  0  0  0  0  0
   -3.0066   -1.6155    7.5676 C   0  0  0  0  0  0  0  0  0  0  0  0
   -3.8980   -2.6563    7.2657 C   0  0  0  0  0  0  0  0  0  0  0  0
   -5.0498   -2.3604    6.5585 C   0  0  0  0  0  0  0  0  0  0  0  0
   -5.3048   -1.0523    6.1670 C   0  0  0  0  0  0  0  0  0  0  0  0
   -4.4559   -0.0005    6.4620 C   0  0  0  0  0  0  0  0  0  0  0  0
   -3.2920   -0.2912    7.1754 C   0  0  0  0  0  0  0  0  0  0  0  0
   -6.5508   -1.0418    5.4219 C   0  0  0  0  0  0  0  0  0  0  0  0
   -7.0542    0.0295    4.8940 N   0  0  0  0  0  0  0  0  0  0  0  0
   -8.2493   -0.2695    4.2323 O   0  0  0  0  0  0  0  0  0  0  0  0
   -7.1214   -2.4394    5.3686 C   0  0  0  0  0  0  0  0  0  0  0  0
   -6.1082   -3.3174    6.1168 C   0  0  0  0  0  0  0  0  0  0  0  0
   -8.5096    0.5987    3.8725 H   0  0  0  0  0  0  0  0  0  0  0  0
    3.2438   -0.4622   13.8389 C   0  0  0  0  0  0  0  0  0  0  0  0
    1.9242   -0.3115   13.0796 C   0  0  0  0  0  0  0  0  0  0  0  0
    2.2003    0.1106   11.6237 C   0  0  0  0  0  0  0  0  0  0  0  0
    0.9649   -0.0214   10.7313 C   0  0  0  0  0  0  0  0  0  0  0  0
    0.5113   -1.3936   10.8661 N   0  0  0  0  0  0  0  0  0  0  0  0
   -0.0523   -1.6684   12.1743 C   0  0  0  0  0  0  0  0  0  0  0  0
    1.1117   -1.6193   13.1682 C   0  0  0  0  0  0  0  0  0  0  0  0
   -0.6176   -3.6177    6.7087 C   0  0  0  0  0  0  0  0  0  0  0  0
   -1.1794   -3.1718    5.5154 C   0  0  0  0  0  0  0  0  0  0  0  0
   -0.9284   -3.9047    4.3667 C   0  0  0  0  0  0  0  0  0  0  0  0
   -0.1806   -5.0308    4.3350 N   0  0  0  0  0  0  0  0  0  0  0  0
    0.3301   -5.4550    5.5091 C   0  0  0  0  0  0  0  0  0  0  0  0
    0.1405   -4.7931    6.7082 C   0  0  0  0  0  0  0  0  0  0  0  0
 18 19  1  0  0  0
 19 20  1  0  0  0
 20 21  1  0  0  0
 21 22  1  0  0  0
 22 23  1  0  0  0
 23 24  1  0  0  0
 19 24  1  0  0  0
 22  1  1  0  0  0
  1  2  1  0  0  0
  2  3  2  0  0  0
  3  4  1  0  0  0
  4  5  2  0  0  0
  1  5  1  0  0  0
  4 25  1  0  0  0
 25 26  2  0  0  0
 26 27  1  0  0  0
 27 28  2  0  0  0
 28 29  1  0  0  0
 29 30  2  0  0  0
 25 30  1  0  0  0
  3  6  1  0  0  0
  6  7  2  0  0  0
  7  8  1  0  0  0
  8  9  2  0  0  0
  9 10  1  0  0  0
 10 11  2  0  0  0
  6 11  1  0  0  0
  9 12  1  0  0  0
 12 13  2  0  0  0
 13 14  1  0  0  0
 12 15  1  0  0  0
 15 16  1  0  0  0
  8 16  1  0  0  0
 14 17  1  0  0  0
M  END
> <minimizedAffinity>
-10.26943

$$$$
mol_11653652_2


 30 34  0  0  0  0  0  0  0  0999 V2000
   -4.1963   -1.1622    6.7791 N   0  0  0  0  0  0  0  0  0  0  0  0
   -3.8201   -0.5241    7.9270 C   0  0  0  0  0  0  0  0  0  0  0  0
   -2.7120   -1.1765    8.3928 C   0  0  0  0  0  0  0  0  0  0  0  0
   -2.4872   -2.2257    7.4555 C   0  0  0  0  0  0  0  0  0  0  0  0
   -3.3692   -2.1692    6.4411 N   0  0  0  0  0  0  0  0  0  0  0  0
   -1.9978   -0.7943    9.5889 C   0  0  0  0  0  0  0  0  0  0  0  0
   -1.9864   -1.6699   10.6852 C   0  0  0  0  0  0  0  0  0  0  0  0
   -1.3498   -1.2713   11.8472 C   0  0  0  0  0  0  0  0  0  0  0  0
   -0.7353   -0.0270   11.9078 C   0  0  0  0  0  0  0  0  0  0  0  0
   -0.7137    0.8533   10.8408 C   0  0  0  0  0  0  0  0  0  0  0  0
   -1.3537    0.4580    9.6651 C   0  0  0  0  0  0  0  0  0  0  0  0
   -0.1835    0.1363   13.2408 C   0  0  0  0  0  0  0  0  0  0  0  0
    0.4338    1.2081   13.6279 N   0  0  0  0  0  0  0  0  0  0  0  0
    0.8426    1.0802   14.9591 O   0  0  0  0  0  0  0  0  0  0  0  0
   -0.4541   -1.1055   14.0572 C   0  0  0  0  0  0  0  0  0  0  0  0
   -1.2450   -2.0356   13.1262 C   0  0  0  0  0  0  0  0  0  0  0  0
    1.2682    1.9411   15.1287 H   0  0  0  0  0  0  0  0  0  0  0  0
   -9.2265    0.4415    5.1810 C   0  0  0  0  0  0  0  0  0  0  0  0
   -7.8063   -0.0336    4.8675 C   0  0  0  0  0  0  0  0  0  0  0  0
   -6.7812    0.9869    5.3981 C   0  0  0  0  0  0  0  0  0  0  0  0
   -5.3538    0.4367    5.3994 C   0  0  0  0  0  0  0  0  0  0  0  0
   -5.3958   -0.7991    6.1596 N   0  0  0  0  0  0  0  0  0  0  0  0
   -6.1073   -1.8562    5.4663 C   0  0  0  0  0  0  0  0  0  0  0  0
   -7.5826   -1.4459    5.4451 C   0  0  0  0  0  0  0  0  0  0  0  0
   -1.4562   -3.2532    7.5605 C   0  0  0  0  0  0  0  0  0  0  0  0
   -0.1236   -2.9122    7.7756 C   0  0  0  0  0  0  0  0  0  0  0  0
    0.7789   -3.9375    8.0079 C   0  0  0  0  0  0  0  0  0  0  0  0
    0.4474   -5.2481    8.0283 N   0  0  0  0  0  0  0  0  0  0  0  0
   -0.8450   -5.5524    7.7912 C   0  0  0  0  0  0  0  0  0  0  0  0
   -1.8219   -4.6032    7.5527 C   0  0  0  0  0  0  0  0  0  0  0  0
 18 19  1  0  0  0
 19 20  1  0  0  0
 20 21  1  0  0  0
 21 22  1  0  0  0
 22 23  1  0  0  0
 23 24  1  0  0  0
 19 24  1  0  0  0
 22  1  1  0  0  0
  1  2  1  0  0  0
  2  3  2  0  0  0
  3  4  1  0  0  0
  4  5  2  0  0  0
  1  5  1  0  0  0
  4 25  1  0  0  0
 25 26  2  0  0  0
 26 27  1  0  0  0
 27 28  2  0  0  0
 28 29  1  0  0  0
 29 30  2  0  0  0
 25 30  1  0  0  0
  3  6  1  0  0  0
  6  7  2  0  0  0
  7  8  1  0  0  0
  8  9  2  0  0  0
  9 10  1  0  0  0
 10 11  2  0  0  0
  6 11  1  0  0  0
  9 12  1  0  0  0
 12 13  2  0  0  0
 13 14  1  0  0  0
 12 15  1  0  0  0
 15 16  1  0  0  0
  8 16  1  0  0  0
 14 17  1  0  0  0
M  END
> <minimizedAffinity>
-10.22405

$$$$
mol_139592319_3


 30 34  0  0  0  0  0  0  0  0999 V2000
   -4.1972   -1.2713    7.5110 N   0  0  0  0  0  0  0  0  0  0  0  0
   -3.2367   -2.1638    7.1274 C   0  0  0  0  0  0  0  0  0  0  0  0
   -2.3236   -2.2179    8.1442 C   0  0  0  0  0  0  0  0  0  0  0  0
   -2.8104   -1.2997    9.1189 C   0  0  0  0  0  0  0  0  0  0  0  0
   -3.9890   -0.7708    8.7432 N   0  0  0  0  0  0  0  0  0  0  0  0
   -1.1537   -3.0650    8.1296 C   0  0  0  0  0  0  0  0  0  0  0  0
    0.0463   -2.5795    8.6711 C   0  0  0  0  0  0  0  0  0  0  0  0
    1.1766   -3.3744    8.6004 C   0  0  0  0  0  0  0  0  0  0  0  0
    1.1053   -4.6276    8.0055 C   0  0  0  0  0  0  0  0  0  0  0  0
   -0.0646   -5.1431    7.4768 C   0  0  0  0  0  0  0  0  0  0  0  0
   -1.2090   -4.3471    7.5447 C   0  0  0  0  0  0  0  0  0  0  0  0
    2.4313   -5.2179    8.0425 C   0  0  0  0  0  0  0  0  0  0  0  0
    2.7058   -6.3805    7.5400 N   0  0  0  0  0  0  0  0  0  0  0  0
    4.0609   -6.6786    7.7152 O   0  0  0  0  0  0  0  0  0  0  0  0
    3.3877   -4.2732    8.7315 C   0  0  0  0  0  0  0  0  0  0  0  0
    2.5476   -3.0388    9.0890 C   0  0  0  0  0  0  0  0  0  0  0  0
    4.1380   -7.5513    7.2869 H   0  0  0  0  0  0  0  0  0  0  0  0
   -8.5915    0.4255    4.6405 C   0  0  0  0  0  0  0  0  0  0  0  0
   -7.1676   -0.1294    4.7121 C   0  0  0  0  0  0  0  0  0  0  0  0
   -6.2438    0.8819    5.4175 C   0  0  0  0  0  0  0  0  0  0  0  0
   -4.8932    0.2739    5.7999 C   0  0  0  0  0  0  0  0  0  0  0  0
   -5.1886   -0.9027    6.5969 N   0  0  0  0  0  0  0  0  0  0  0  0
   -5.7715   -1.9751    5.8128 C   0  0  0  0  0  0  0  0  0  0  0  0
   -7.1718   -1.5059    5.4076 C   0  0  0  0  0  0  0  0  0  0  0  0
   -2.1362   -0.9439   10.3634 C   0  0  0  0  0  0  0  0  0  0  0  0
   -1.4953    0.2838   10.5058 C   0  0  0  0  0  0  0  0  0  0  0  0
   -1.0003    0.6157   11.7565 C   0  0  0  0  0  0  0  0  0  0  0  0
   -1.0922   -0.1827   12.8439 N   0  0  0  0  0  0  0  0  0  0  0  0
   -1.6947   -1.3771   12.6721 C   0  0  0  0  0  0  0  0  0  0  0  0
   -2.2240   -1.7994   11.4665 C   0  0  0  0  0  0  0  0  0  0  0  0
 18 19  1  0  0  0
 19 20  1  0  0  0
 20 21  1  0  0  0
 21 22  1  0  0  0
 22 23  1  0  0  0
 23 24  1  0  0  0
 19 24  1  0  0  0
 22  1  1  0  0  0
  1  2  1  0  0  0
  2  3  2  0  0  0
  3  4  1  0  0  0
  4  5  2  0  0  0
  1  5  1  0  0  0
  4 25  1  0  0  0
 25 26  2  0  0  0
 26 27  1  0  0  0
 27 28  2  0  0  0
 28 29  1  0  0  0
 29 30  2  0  0  0
 25 30  1  0  0  0
  3  6  1  0  0  0
  6  7  2  0  0  0
  7  8  1  0  0  0
  8  9  2  0  0  0
  9 10  1  0  0  0
 10 11  2  0  0  0
  6 11  1  0  0  0
  9 12  1  0  0  0
 12 13  2  0  0  0
 13 14  1  0  0  0
 12 15  1  0  0  0
 15 16  1  0  0  0
  8 16  1  0  0  0
 14 17  1  0  0  0
M  END
> <minimizedAffinity>
-10.59725

$$$$
mol_139592319_3


 30 34  0  0  0  0  0  0  0  0999 V2000
   -0.1902   -1.9031    9.7694 N   0  0  0  0  0  0  0  0  0  0  0  0
   -1.3938   -1.3506    9.4342 C   0  0  0  0  0  0  0  0  0  0  0  0
   -1.7726   -1.9245    8.2520 C   0  0  0  0  0  0  0  0  0  0  0  0
   -0.7145   -2.8220    7.9283 C   0  0  0  0  0  0  0  0  0  0  0  0
    0.2202   -2.8414    8.8957 N   0  0  0  0  0  0  0  0  0  0  0  0
   -3.0066   -1.6155    7.5676 C   0  0  0  0  0  0  0  0  0  0  0  0
   -3.8980   -2.6563    7.2657 C   0  0  0  0  0  0  0  0  0  0  0  0
   -5.0498   -2.3604    6.5585 C   0  0  0  0  0  0  0  0  0  0  0  0
   -5.3048   -1.0523    6.1670 C   0  0  0  0  0  0  0  0  0  0  0  0
   -4.4559   -0.0005    6.4620 C   0  0  0  0  0  0  0  0  0  0  0  0
   -3.2920   -0.2912    7.1754 C   0  0  0  0  0  0  0  0  0  0  0  0
   -6.5508   -1.0418    5.4219 C   0  0  0  0  0  0  0  0  0  0  0  0
   -7.0542    0.0295    4.8940 N   0  0  0  0  0  0  0  0  0  0  0  0
   -8.2493   -0.2695    4.2323 O   0  0  0  0  0  0  0  0  0  0  0  0
   -7.1214   -2.4394    5.3686 C   0  0  0  0  0  0  0  0  0  0  0  0
   -6.1082   -3.3174    6.1168 C   0  0  0  0  0  0  0  0  0  0  0  0
   -8.5096    0.5987    3.8725 H   0  0  0  0  0  0  0  0  0  0  0  0
    3.2438   -0.4622   13.8389 C   0  0  0  0  0  0  0  0  0  0  0  0
    1.9242   -0.3115   13.0796 C   0  0  0  0  0  0  0  0  0  0  0  0
    2.2003    0.1106   11.6237 C   0  0  0  0  0  0  0  0  0  0  0  0
    0.9649   -0.0214   10.7313 C   0  0  0  0  0  0  0  0  0  0  0  0
    0.5113   -1.3936   10.8661 N   0  0  0  0  0  0  0  0  0  0  0  0
   -0.0523   -1.6684   12.1743 C   0  0  0  0  0  0  0  0  0  0  0  0
    1.1117   -1.6193   13.1682 C   0  0  0  0  0  0  0  0  0  0  0  0
   -0.6176   -3.6177    6.7087 C   0  0  0  0  0  0  0  0  0  0  0  0
   -1.1794   -3.1718    5.5154 C   0  0  0  0  0  0  0  0  0  0  0  0
   -0.9284   -3.9047    4.3667 C   0  0  0  0  0  0  0  0  0  0  0  0
   -0.1806   -5.0308    4.3350 N   0  0  0  0  0  0  0  0  0  0  0  0
    0.3301   -5.4550    5.5091 C   0  0  0  0  0  0  0  0  0  0  0  0
    0.1405   -4.7931    6.7082 C   0  0  0  0  0  0  0  0  0  0  0  0
 18 19  1  0  0  0
 19 20  1  0  0  0
 20 21  1  0  0  0
 21 22  1  0  0  0
 22 23  1  0  0  0
 23 24  1  0  0  0
 19 24  1  0  0  0
 22  1  1  0  0  0
  1  2  1  0  0  0
  2  3  2  0  0  0
  3  4  1  0  0  0
  4  5  2  0  0  0
  1  5  1  0  0  0
  4 25  1  0  0  0
 25 26  2  0  0  0
 26 27  1  0  0  0
 27 28  2  0  0  0
 28 29  1  0  0  0
 29 30  2  0  0  0
 25 30  1  0  0  0
  3  6  1  0  0  0
  6  7  2  0  0  0
  7  8  1  0  0  0
  8  9  2  0  0  0
  9 10  1  0  0  0
 10 11  2  0  0  0
  6 11  1  0  0  0
  9 12  1  0  0  0
 12 13  2  0  0  0
 13 14  1  0  0  0
 12 15  1  0  0  0
 15 16  1  0  0  0
  8 16  1  0  0  0
 14 17  1  0  0  0
M  END
> <minimizedAffinity>
-10.26943

$$$$
mol_139592319_3


 30 34  0  0  0  0  0  0  0  0999 V2000
   -4.1963   -1.1622    6.7791 N   0  0  0  0  0  0  0  0  0  0  0  0
   -3.8201   -0.5241    7.9270 C   0  0  0  0  0  0  0  0  0  0  0  0
   -2.7120   -1.1765    8.3928 C   0  0  0  0  0  0  0  0  0  0  0  0
   -2.4872   -2.2257    7.4555 C   0  0  0  0  0  0  0  0  0  0  0  0
   -3.3692   -2.1692    6.4411 N   0  0  0  0  0  0  0  0  0  0  0  0
   -1.9978   -0.7943    9.5889 C   0  0  0  0  0  0  0  0  0  0  0  0
   -1.9864   -1.6699   10.6852 C   0  0  0  0  0  0  0  0  0  0  0  0
   -1.3498   -1.2713   11.8472 C   0  0  0  0  0  0  0  0  0  0  0  0
   -0.7353   -0.0270   11.9078 C   0  0  0  0  0  0  0  0  0  0  0  0
   -0.7137    0.8533   10.8408 C   0  0  0  0  0  0  0  0  0  0  0  0
   -1.3537    0.4580    9.6651 C   0  0  0  0  0  0  0  0  0  0  0  0
   -0.1835    0.1363   13.2408 C   0  0  0  0  0  0  0  0  0  0  0  0
    0.4338    1.2081   13.6279 N   0  0  0  0  0  0  0  0  0  0  0  0
    0.8426    1.0802   14.9591 O   0  0  0  0  0  0  0  0  0  0  0  0
   -0.4541   -1.1055   14.0572 C   0  0  0  0  0  0  0  0  0  0  0  0
   -1.2450   -2.0356   13.1262 C   0  0  0  0  0  0  0  0  0  0  0  0
    1.2682    1.9411   15.1287 H   0  0  0  0  0  0  0  0  0  0  0  0
   -9.2265    0.4415    5.1810 C   0  0  0  0  0  0  0  0  0  0  0  0
   -7.8063   -0.0336    4.8675 C   0  0  0  0  0  0  0  0  0  0  0  0
   -6.7812    0.9869    5.3981 C   0  0  0  0  0  0  0  0  0  0  0  0
   -5.3538    0.4367    5.3994 C   0  0  0  0  0  0  0  0  0  0  0  0
   -5.3958   -0.7991    6.1596 N   0  0  0  0  0  0  0  0  0  0  0  0
   -6.1073   -1.8562    5.4663 C   0  0  0  0  0  0  0  0  0  0  0  0
   -7.5826   -1.4459    5.4451 C   0  0  0  0  0  0  0  0  0  0  0  0
   -1.4562   -3.2532    7.5605 C   0  0  0  0  0  0  0  0  0  0  0  0
   -0.1236   -2.9122    7.7756 C   0  0  0  0  0  0  0  0  0  0  0  0
    0.7789   -3.9375    8.0079 C   0  0  0  0  0  0  0  0  0  0  0  0
    0.4474   -5.2481    8.0283 N   0  0  0  0  0  0  0  0  0  0  0  0
   -0.8450   -5.5524    7.7912 C   0  0  0  0  0  0  0  0  0  0  0  0
   -1.8219   -4.6032    7.5527 C   0  0  0  0  0  0  0  0  0  0  0  0
 18 19  1  0  0  0
 19 20  1  0  0  0
 20 21  1  0  0  0
 21 22  1  0  0  0
 22 23  1  0  0  0
 23 24  1  0  0  0
 19 24  1  0  0  0
 22  1  1  0  0  0
  1  2  1  0  0  0
  2  3  2  0  0  0
  3  4  1  0  0  0
  4  5  2  0  0  0
  1  5  1  0  0  0
  4 25  1  0  0  0
 25 26  2  0  0  0
 26 27  1  0  0  0
 27 28  2  0  0  0
 28 29  1  0  0  0
 29 30  2  0  0  0
 25 30  1  0  0  0
  3  6  1  0  0  0
  6  7  2  0  0  0
  7  8  1  0  0  0
  8  9  2  0  0  0
  9 10  1  0  0  0
 10 11  2  0  0  0
  6 11  1  0  0  0
  9 12  1  0  0  0
 12 13  2  0  0  0
 13 14  1  0  0  0
 12 15  1  0  0  0
 15 16  1  0  0  0
  8 16  1  0  0  0
 14 17  1  0  0  0
M  END
> <minimizedAffinity>
-10.22405

$$$$
mol_135927350_4


 30 34  0  0  0  0  0  0  0  0999 V2000
   -4.1972   -1.2713    7.5110 N   0  0  0  0  0  0  0  0  0  0  0  0
   -3.2367   -2.1638    7.1274 C   0  0  0  0  0  0  0  0  0  0  0  0
   -2.3236   -2.2179    8.1442 C   0  0  0  0  0  0  0  0  0  0  0  0
   -2.8104   -1.2997    9.1189 C   0  0  0  0  0  0  0  0  0  0  0  0
   -3.9890   -0.7708    8.7432 N   0  0  0  0  0  0  0  0  0  0  0  0
   -1.1537   -3.0650    8.1296 C   0  0  0  0  0  0  0  0  0  0  0  0
    0.0463   -2.5795    8.6711 C   0  0  0  0  0  0  0  0  0  0  0  0
    1.1766   -3.3744    8.6004 C   0  0  0  0  0  0  0  0  0  0  0  0
    1.1053   -4.6276    8.0055 C   0  0  0  0  0  0  0  0  0  0  0  0
   -0.0646   -5.1431    7.4768 C   0  0  0  0  0  0  0  0  0  0  0  0
   -1.2090   -4.3471    7.5447 C   0  0  0  0  0  0  0  0  0  0  0  0
    2.4313   -5.2179    8.0425 C   0  0  0  0  0  0  0  0  0  0  0  0
    2.7058   -6.3805    7.5400 N   0  0  0  0  0  0  0  0  0  0  0  0
    4.0609   -6.6786    7.7152 O   0  0  0  0  0  0  0  0  0  0  0  0
    3.3877   -4.2732    8.7315 C   0  0  0  0  0  0  0  0  0  0  0  0
    2.5476   -3.0388    9.0890 C   0  0  0  0  0  0  0  0  0  0  0  0
    4.1380   -7.5513    7.2869 H   0  0  0  0  0  0  0  0  0  0  0  0
   -8.5915    0.4255    4.6405 C   0  0  0  0  0  0  0  0  0  0  0  0
   -7.1676   -0.1294    4.7121 C   0  0  0  0  0  0  0  0  0  0  0  0
   -6.2438    0.8819    5.4175 C   0  0  0  0  0  0  0  0  0  0  0  0
   -4.8932    0.2739    5.7999 C   0  0  0  0  0  0  0  0  0  0  0  0
   -5.1886   -0.9027    6.5969 N   0  0  0  0  0  0  0  0  0  0  0  0
   -5.7715   -1.9751    5.8128 C   0  0  0  0  0  0  0  0  0  0  0  0
   -7.1718   -1.5059    5.4076 C   0  0  0  0  0  0  0  0  0  0  0  0
   -2.1362   -0.9439   10.3634 C   0  0  0  0  0  0  0  0  0  0  0  0
   -1.4953    0.2838   10.5058 C   0  0  0  0  0  0  0  0  0  0  0  0
   -1.0003    0.6157   11.7565 C   0  0  0  0  0  0  0  0  0  0  0  0
   -1.0922   -0.1827   12.8439 N   0  0  0  0  0  0  0  0  0  0  0  0
   -1.6947   -1.3771   12.6721 C   0  0  0  0  0  0  0  0  0  0  0  0
   -2.2240   -1.7994   11.4665 C   0  0  0  0  0  0  0  0  0  0  0  0
 18 19  1  0  0  0
 19 20  1  0  0  0
 20 21  1  0  0  0
 21 22  1  0  0  0
 22 23  1  0  0  0
 23 24  1  0  0  0
 19 24  1  0  0  0
 22  1  1  0  0  0
  1  2  1  0  0  0
  2  3  2  0  0  0
  3  4  1  0  0  0
  4  5  2  0  0  0
  1  5  1  0  0  0
  4 25  1  0  0  0
 25 26  2  0  0  0
 26 27  1  0  0  0
 27 28  2  0  0  0
 28 29  1  0  0  0
 29 30  2  0  0  0
 25 30  1  0  0  0
  3  6  1  0  0  0
  6  7  2  0  0  0
  7  8  1  0  0  0
  8  9  2  0  0  0
  9 10  1  0  0  0
 10 11  2  0  0  0
  6 11  1  0  0  0
  9 12  1  0  0  0
 12 13  2  0  0  0
 13 14  1  0  0  0
 12 15  1  0  0  0
 15 16  1  0  0  0
  8 16  1  0  0  0
 14 17  1  0  0  0
M  END
> <minimizedAffinity>
-10.59725

$$$$
mol_135927350_4


 30 34  0  0  0  0  0  0  0  0999 V2000
   -0.1902   -1.9031    9.7694 N   0  0  0  0  0  0  0  0  0  0  0  0
   -1.3938   -1.3506    9.4342 C   0  0  0  0  0  0  0  0  0  0  0  0
   -1.7726   -1.9245    8.2520 C   0  0  0  0  0  0  0  0  0  0  0  0
   -0.7145   -2.8220    7.9283 C   0  0  0  0  0  0  0  0  0  0  0  0
    0.2202   -2.8414    8.8957 N   0  0  0  0  0  0  0  0  0  0  0  0
   -3.0066   -1.6155    7.5676 C   0  0  0  0  0  0  0  0  0  0  0  0
   -3.8980   -2.6563    7.2657 C   0  0  0  0  0  0  0  0  0  0  0  0
   -5.0498   -2.3604    6.5585 C   0  0  0  0  0  0  0  0  0  0  0  0
   -5.3048   -1.0523    6.1670 C   0  0  0  0  0  0  0  0  0  0  0  0
   -4.4559   -0.0005    6.4620 C   0  0  0  0  0  0  0  0  0  0  0  0
   -3.2920   -0.2912    7.1754 C   0  0  0  0  0  0  0  0  0  0  0  0
   -6.5508   -1.0418    5.4219 C   0  0  0  0  0  0  0  0  0  0  0  0
   -7.0542    0.0295    4.8940 N   0  0  0  0  0  0  0  0  0  0  0  0
   -8.2493   -0.2695    4.2323 O   0  0  0  0  0  0  0  0  0  0  0  0
   -7.1214   -2.4394    5.3686 C   0  0  0  0  0  0  0  0  0  0  0  0
   -6.1082   -3.3174    6.1168 C   0  0  0  0  0  0  0  0  0  0  0  0
   -8.5096    0.5987    3.8725 H   0  0  0  0  0  0  0  0  0  0  0  0
    3.2438   -0.4622   13.8389 C   0  0  0  0  0  0  0  0  0  0  0  0
    1.9242   -0.3115   13.0796 C   0  0  0  0  0  0  0  0  0  0  0  0
    2.2003    0.1106   11.6237 C   0  0  0  0  0  0  0  0  0  0  0  0
    0.9649   -0.0214   10.7313 C   0  0  0  0  0  0  0  0  0  0  0  0
    0.5113   -1.3936   10.8661 N   0  0  0  0  0  0  0  0  0  0  0  0
   -0.0523   -1.6684   12.1743 C   0  0  0  0  0  0  0  0  0  0  0  0
    1.1117   -1.6193   13.1682 C   0  0  0  0  0  0  0  0  0  0  0  0
   -0.6176   -3.6177    6.7087 C   0  0  0  0  0  0  0  0  0  0  0  0
   -1.1794   -3.1718    5.5154 C   0  0  0  0  0  0  0  0  0  0  0  0
   -0.9284   -3.9047    4.3667 C   0  0  0  0  0  0  0  0  0  0  0  0
   -0.1806   -5.0308    4.3350 N   0  0  0  0  0  0  0  0  0  0  0  0
    0.3301   -5.4550    5.5091 C   0  0  0  0  0  0  0  0  0  0  0  0
    0.1405   -4.7931    6.7082 C   0  0  0  0  0  0  0  0  0  0  0  0
 18 19  1  0  0  0
 19 20  1  0  0  0
 20 21  1  0  0  0
 21 22  1  0  0  0
 22 23  1  0  0  0
 23 24  1  0  0  0
 19 24  1  0  0  0
 22  1  1  0  0  0
  1  2  1  0  0  0
  2  3  2  0  0  0
  3  4  1  0  0  0
  4  5  2  0  0  0
  1  5  1  0  0  0
  4 25  1  0  0  0
 25 26  2  0  0  0
 26 27  1  0  0  0
 27 28  2  0  0  0
 28 29  1  0  0  0
 29 30  2  0  0  0
 25 30  1  0  0  0
  3  6  1  0  0  0
  6  7  2  0  0  0
  7  8  1  0  0  0
  8  9  2  0  0  0
  9 10  1  0  0  0
 10 11  2  0  0  0
  6 11  1  0  0  0
  9 12  1  0  0  0
 12 13  2  0  0  0
 13 14  1  0  0  0
 12 15  1  0  0  0
 15 16  1  0  0  0
  8 16  1  0  0  0
 14 17  1  0  0  0
M  END
> <minimizedAffinity>
-10.26943

$$$$
mol_135927350_4


 30 34  0  0  0  0  0  0  0  0999 V2000
   -4.1963   -1.1622    6.7791 N   0  0  0  0  0  0  0  0  0  0  0  0
   -3.8201   -0.5241    7.9270 C   0  0  0  0  0  0  0  0  0  0  0  0
   -2.7120   -1.1765    8.3928 C   0  0  0  0  0  0  0  0  0  0  0  0
   -2.4872   -2.2257    7.4555 C   0  0  0  0  0  0  0  0  0  0  0  0
   -3.3692   -2.1692    6.4411 N   0  0  0  0  0  0  0  0  0  0  0  0
   -1.9978   -0.7943    9.5889 C   0  0  0  0  0  0  0  0  0  0  0  0
   -1.9864   -1.6699   10.6852 C   0  0  0  0  0  0  0  0  0  0  0  0
   -1.3498   -1.2713   11.8472 C   0  0  0  0  0  0  0  0  0  0  0  0
   -0.7353   -0.0270   11.9078 C   0  0  0  0  0  0  0  0  0  0  0  0
   -0.7137    0.8533   10.8408 C   0  0  0  0  0  0  0  0  0  0  0  0
   -1.3537    0.4580    9.6651 C   0  0  0  0  0  0  0  0  0  0  0  0
   -0.1835    0.1363   13.2408 C   0  0  0  0  0  0  0  0  0  0  0  0
    0.4338    1.2081   13.6279 N   0  0  0  0  0  0  0  0  0  0  0  0
    0.8426    1.0802   14.9591 O   0  0  0  0  0  0  0  0  0  0  0  0
   -0.4541   -1.1055   14.0572 C   0  0  0  0  0  0  0  0  0  0  0  0
   -1.2450   -2.0356   13.1262 C   0  0  0  0  0  0  0  0  0  0  0  0
    1.2682    1.9411   15.1287 H   0  0  0  0  0  0  0  0  0  0  0  0
   -9.2265    0.4415    5.1810 C   0  0  0  0  0  0  0  0  0  0  0  0
   -7.8063   -0.0336    4.8675 C   0  0  0  0  0  0  0  0  0  0  0  0
   -6.7812    0.9869    5.3981 C   0  0  0  0  0  0  0  0  0  0  0  0
   -5.3538    0.4367    5.3994 C   0  0  0  0  0  0  0  0  0  0  0  0
   -5.3958   -0.7991    6.1596 N   0  0  0  0  0  0  0  0  0  0  0  0
   -6.1073   -1.8562    5.4663 C   0  0  0  0  0  0  0  0  0  0  0  0
   -7.5826   -1.4459    5.4451 C   0  0  0  0  0  0  0  0  0  0  0  0
   -1.4562   -3.2532    7.5605 C   0  0  0  0  0  0  0  0  0  0  0  0
   -0.1236   -2.9122    7.7756 C   0  0  0  0  0  0  0  0  0  0  0  0
    0.7789   -3.9375    8.0079 C   0  0  0  0  0  0  0  0  0  0  0  0
    0.4474   -5.2481    8.0283 N   0  0  0  0  0  0  0  0  0  0  0  0
   -0.8450   -5.5524    7.7912 C   0  0  0  0  0  0  0  0  0  0  0  0
   -1.8219   -4.6032    7.5527 C   0  0  0  0  0  0  0  0  0  0  0  0
 18 19  1  0  0  0
 19 20  1  0  0  0
 20 21  1  0  0  0
 21 22  1  0  0  0
 22 23  1  0  0  0
 23 24  1  0  0  0
 19 24  1  0  0  0
 22  1  1  0  0  0
  1  2  1  0  0  0
  2  3  2  0  0  0
  3  4  1  0  0  0
  4  5  2  0  0  0
  1  5  1  0  0  0
  4 25  1  0  0  0
 25 26  2  0  0  0
 26 27  1  0  0  0
 27 28  2  0  0  0
 28 29  1  0  0  0
 29 30  2  0  0  0
 25 30  1  0  0  0
  3  6  1  0  0  0
  6  7  2  0  0  0
  7  8  1  0  0  0
  8  9  2  0  0  0
  9 10  1  0  0  0
 10 11  2  0  0  0
  6 11  1  0  0  0
  9 12  1  0  0  0
 12 13  2  0  0  0
 13 14  1  0  0  0
 12 15  1  0  0  0
 15 16  1  0  0  0
  8 16  1  0  0  0
 14 17  1  0  0  0
M  END
> <minimizedAffinity>
-10.22405

$$$$
mol_91896025_5


 30 34  0  0  0  0  0  0  0  0999 V2000
   -4.1972   -1.2713    7.5110 N   0  0  0  0  0  0  0  0  0  0  0  0
   -3.2367   -2.1638    7.1274 C   0  0  0  0  0  0  0  0  0  0  0  0
   -2.3236   -2.2179    8.1442 C   0  0  0  0  0  0  0  0  0  0  0  0
   -2.8104   -1.2997    9.1189 C   0  0  0  0  0  0  0  0  0  0  0  0
   -3.9890   -0.7708    8.7432 N   0  0  0  0  0  0  0  0  0  0  0  0
   -1.1537   -3.0650    8.1296 C   0  0  0  0  0  0  0  0  0  0  0  0
    0.0463   -2.5795    8.6711 C   0  0  0  0  0  0  0  0  0  0  0  0
    1.1766   -3.3744    8.6004 C   0  0  0  0  0  0  0  0  0  0  0  0
    1.1053   -4.6276    8.0055 C   0  0  0  0  0  0  0  0  0  0  0  0
   -0.0646   -5.1431    7.4768 C   0  0  0  0  0  0  0  0  0  0  0  0
   -1.2090   -4.3471    7.5447 C   0  0  0  0  0  0  0  0  0  0  0  0
    2.4313   -5.2179    8.0425 C   0  0  0  0  0  0  0  0  0  0  0  0
    2.7058   -6.3805    7.5400 N   0  0  0  0  0  0  0  0  0  0  0  0
    4.0609   -6.6786    7.7152 O   0  0  0  0  0  0  0  0  0  0  0  0
    3.3877   -4.2732    8.7315 C   0  0  0  0  0  0  0  0  0  0  0  0
    2.5476   -3.0388    9.0890 C   0  0  0  0  0  0  0  0  0  0  0  0
    4.1380   -7.5513    7.2869 H   0  0  0  0  0  0  0  0  0  0  0  0
   -8.5915    0.4255    4.6405 C   0  0  0  0  0  0  0  0  0  0  0  0
   -7.1676   -0.1294    4.7121 C   0  0  0  0  0  0  0  0  0  0  0  0
   -6.2438    0.8819    5.4175 C   0  0  0  0  0  0  0  0  0  0  0  0
   -4.8932    0.2739    5.7999 C   0  0  0  0  0  0  0  0  0  0  0  0
   -5.1886   -0.9027    6.5969 N   0  0  0  0  0  0  0  0  0  0  0  0
   -5.7715   -1.9751    5.8128 C   0  0  0  0  0  0  0  0  0  0  0  0
   -7.1718   -1.5059    5.4076 C   0  0  0  0  0  0  0  0  0  0  0  0
   -2.1362   -0.9439   10.3634 C   0  0  0  0  0  0  0  0  0  0  0  0
   -1.4953    0.2838   10.5058 C   0  0  0  0  0  0  0  0  0  0  0  0
   -1.0003    0.6157   11.7565 C   0  0  0  0  0  0  0  0  0  0  0  0
   -1.0922   -0.1827   12.8439 N   0  0  0  0  0  0  0  0  0  0  0  0
   -1.6947   -1.3771   12.6721 C   0  0  0  0  0  0  0  0  0  0  0  0
   -2.2240   -1.7994   11.4665 C   0  0  0  0  0  0  0  0  0  0  0  0
 18 19  1  0  0  0
 19 20  1  0  0  0
 20 21  1  0  0  0
 21 22  1  0  0  0
 22 23  1  0  0  0
 23 24  1  0  0  0
 19 24  1  0  0  0
 22  1  1  0  0  0
  1  2  1  0  0  0
  2  3  2  0  0  0
  3  4  1  0  0  0
  4  5  2  0  0  0
  1  5  1  0  0  0
  4 25  1  0  0  0
 25 26  2  0  0  0
 26 27  1  0  0  0
 27 28  2  0  0  0
 28 29  1  0  0  0
 29 30  2  0  0  0
 25 30  1  0  0  0
  3  6  1  0  0  0
  6  7  2  0  0  0
  7  8  1  0  0  0
  8  9  2  0  0  0
  9 10  1  0  0  0
 10 11  2  0  0  0
  6 11  1  0  0  0
  9 12  1  0  0  0
 12 13  2  0  0  0
 13 14  1  0  0  0
 12 15  1  0  0  0
 15 16  1  0  0  0
  8 16  1  0  0  0
 14 17  1  0  0  0
M  END
> <minimizedAffinity>
-10.59725

$$$$
mol_91896025_5


 30 34  0  0  0  0  0  0  0  0999 V2000
   -0.1902   -1.9031    9.7694 N   0  0  0  0  0  0  0  0  0  0  0  0
   -1.3938   -1.3506    9.4342 C   0  0  0  0  0  0  0  0  0  0  0  0
   -1.7726   -1.9245    8.2520 C   0  0  0  0  0  0  0  0  0  0  0  0
   -0.7145   -2.8220    7.9283 C   0  0  0  0  0  0  0  0  0  0  0  0
    0.2202   -2.8414    8.8957 N   0  0  0  0  0  0  0  0  0  0  0  0
   -3.0066   -1.6155    7.5676 C   0  0  0  0  0  0  0  0  0  0  0  0
   -3.8980   -2.6563    7.2657 C   0  0  0  0  0  0  0  0  0  0  0  0
   -5.0498   -2.3604    6.5585 C   0  0  0  0  0  0  0  0  0  0  0  0
   -5.3048   -1.0523    6.1670 C   0  0  0  0  0  0  0  0  0  0  0  0
   -4.4559   -0.0005    6.4620 C   0  0  0  0  0  0  0  0  0  0  0  0
   -3.2920   -0.2912    7.1754 C   0  0  0  0  0  0  0  0  0  0  0  0
   -6.5508   -1.0418    5.4219 C   0  0  0  0  0  0  0  0  0  0  0  0
   -7.0542    0.0295    4.8940 N   0  0  0  0  0  0  0  0  0  0  0  0
   -8.2493   -0.2695    4.2323 O   0  0  0  0  0  0  0  0  0  0  0  0
   -7.1214   -2.4394    5.3686 C   0  0  0  0  0  0  0  0  0  0  0  0
   -6.1082   -3.3174    6.1168 C   0  0  0  0  0  0  0  0  0  0  0  0
   -8.5096    0.5987    3.8725 H   0  0  0  0  0  0  0  0  0  0  0  0
    3.2438   -0.4622   13.8389 C   0  0  0  0  0  0  0  0  0  0  0  0
    1.9242   -0.3115   13.0796 C   0  0  0  0  0  0  0  0  0  0  0  0
    2.2003    0.1106   11.6237 C   0  0  0  0  0  0  0  0  0  0  0  0
    0.9649   -0.0214   10.7313 C   0  0  0  0  0  0  0  0  0  0  0  0
    0.5113   -1.3936   10.8661 N   0  0  0  0  0  0  0  0  0  0  0  0
   -0.0523   -1.6684   12.1743 C   0  0  0  0  0  0  0  0  0  0  0  0
    1.1117   -1.6193   13.1682 C   0  0  0  0  0  0  0  0  0  0  0  0
   -0.6176   -3.6177    6.7087 C   0  0  0  0  0  0  0  0  0  0  0  0
   -1.1794   -3.1718    5.5154 C   0  0  0  0  0  0  0  0  0  0  0  0
   -0.9284   -3.9047    4.3667 C   0  0  0  0  0  0  0  0  0  0  0  0
   -0.1806   -5.0308    4.3350 N   0  0  0  0  0  0  0  0  0  0  0  0
    0.3301   -5.4550    5.5091 C   0  0  0  0  0  0  0  0  0  0  0  0
    0.1405   -4.7931    6.7082 C   0  0  0  0  0  0  0  0  0  0  0  0
 18 19  1  0  0  0
 19 20  1  0  0  0
 20 21  1  0  0  0
 21 22  1  0  0  0
 22 23  1  0  0  0
 23 24  1  0  0  0
 19 24  1  0  0  0
 22  1  1  0  0  0
  1  2  1  0  0  0
  2  3  2  0  0  0
  3  4  1  0  0  0
  4  5  2  0  0  0
  1  5  1  0  0  0
  4 25  1  0  0  0
 25 26  2  0  0  0
 26 27  1  0  0  0
 27 28  2  0  0  0
 28 29  1  0  0  0
 29 30  2  0  0  0
 25 30  1  0  0  0
  3  6  1  0  0  0
  6  7  2  0  0  0
  7  8  1  0  0  0
  8  9  2  0  0  0
  9 10  1  0  0  0
 10 11  2  0  0  0
  6 11  1  0  0  0
  9 12  1  0  0  0
 12 13  2  0  0  0
 13 14  1  0  0  0
 12 15  1  0  0  0
 15 16  1  0  0  0
  8 16  1  0  0  0
 14 17  1  0  0  0
M  END
> <minimizedAffinity>
-10.26943

$$$$
mol_91896025_5


 30 34  0  0  0  0  0  0  0  0999 V2000
   -4.1963   -1.1622    6.7791 N   0  0  0  0  0  0  0  0  0  0  0  0
   -3.8201   -0.5241    7.9270 C   0  0  0  0  0  0  0  0  0  0  0  0
   -2.7120   -1.1765    8.3928 C   0  0  0  0  0  0  0  0  0  0  0  0
   -2.4872   -2.2257    7.4555 C   0  0  0  0  0  0  0  0  0  0  0  0
   -3.3692   -2.1692    6.4411 N   0  0  0  0  0  0  0  0  0  0  0  0
   -1.9978   -0.7943    9.5889 C   0  0  0  0  0  0  0  0  0  0  0  0
   -1.9864   -1.6699   10.6852 C   0  0  0  0  0  0  0  0  0  0  0  0
   -1.3498   -1.2713   11.8472 C   0  0  0  0  0  0  0  0  0  0  0  0
   -0.7353   -0.0270   11.9078 C   0  0  0  0  0  0  0  0  0  0  0  0
   -0.7137    0.8533   10.8408 C   0  0  0  0  0  0  0  0  0  0  0  0
   -1.3537    0.4580    9.6651 C   0  0  0  0  0  0  0  0  0  0  0  0
   -0.1835    0.1363   13.2408 C   0  0  0  0  0  0  0  0  0  0  0  0
    0.4338    1.2081   13.6279 N   0  0  0  0  0  0  0  0  0  0  0  0
    0.8426    1.0802   14.9591 O   0  0  0  0  0  0  0  0  0  0  0  0
   -0.4541   -1.1055   14.0572 C   0  0  0  0  0  0  0  0  0  0  0  0
   -1.2450   -2.0356   13.1262 C   0  0  0  0  0  0  0  0  0  0  0  0
    1.2682    1.9411   15.1287 H   0  0  0  0  0  0  0  0  0  0  0  0
   -9.2265    0.4415    5.1810 C   0  0  0  0  0  0  0  0  0  0  0  0
   -7.8063   -0.0336    4.8675 C   0  0  0  0  0  0  0  0  0  0  0  0
   -6.7812    0.9869    5.3981 C   0  0  0  0  0  0  0  0  0  0  0  0
   -5.3538    0.4367    5.3994 C   0  0  0  0  0  0  0  0  0  0  0  0
   -5.3958   -0.7991    6.1596 N   0  0  0  0  0  0  0  0  0  0  0  0
   -6.1073   -1.8562    5.4663 C   0  0  0  0  0  0  0  0  0  0  0  0
   -7.5826   -1.4459    5.4451 C   0  0  0  0  0  0  0  0  0  0  0  0
   -1.4562   -3.2532    7.5605 C   0  0  0  0  0  0  0  0  0  0  0  0
   -0.1236   -2.9122    7.7756 C   0  0  0  0  0  0  0  0  0  0  0  0
    0.7789   -3.9375    8.0079 C   0  0  0  0  0  0  0  0  0  0  0  0
    0.4474   -5.2481    8.0283 N   0  0  0  0  0  0  0  0  0  0  0  0
   -0.8450   -5.5524    7.7912 C   0  0  0  0  0  0  0  0  0  0  0  0
   -1.8219   -4.6032    7.5527 C   0  0  0  0  0  0  0  0  0  0  0  0
 18 19  1  0  0  0
 19 20  1  0  0  0
 20 21  1  0  0  0
 21 22  1  0  0  0
 22 23  1  0  0  0
 23 24  1  0  0  0
 19 24  1  0  0  0
 22  1  1  0  0  0
  1  2  1  0  0  0
  2  3  2  0  0  0
  3  4  1  0  0  0
  4  5  2  0  0  0
  1  5  1  0  0  0
  4 25  1  0  0  0
 25 26  2  0  0  0
 26 27  1  0  0  0
 27 28  2  0  0  0
 28 29  1  0  0  0
 29 30  2  0  0  0
 25 30  1  0  0  0
  3  6  1  0  0  0
  6  7  2  0  0  0
  7  8  1  0  0  0
  8  9  2  0  0  0
  9 10  1  0  0  0
 10 11  2  0  0  0
  6 11  1  0  0  0
  9 12  1  0  0  0
 12 13  2  0  0  0
 13 14  1  0  0  0
 12 15  1  0  0  0
 15 16  1  0  0  0
  8 16  1  0  0  0
 14 17  1  0  0  0
M  END
> <minimizedAffinity>
-10.22405

$$$$
mol_91896028_6


 30 34  0  0  0  0  0  0  0  0999 V2000
   -4.1972   -1.2713    7.5110 N   0  0  0  0  0  0  0  0  0  0  0  0
   -3.2367   -2.1638    7.1274 C   0  0  0  0  0  0  0  0  0  0  0  0
   -2.3236   -2.2179    8.1442 C   0  0  0  0  0  0  0  0  0  0  0  0
   -2.8104   -1.2997    9.1189 C   0  0  0  0  0  0  0  0  0  0  0  0
   -3.9890   -0.7708    8.7432 N   0  0  0  0  0  0  0  0  0  0  0  0
   -1.1537   -3.0650    8.1296 C   0  0  0  0  0  0  0  0  0  0  0  0
    0.0463   -2.5795    8.6711 C   0  0  0  0  0  0  0  0  0  0  0  0
    1.1766   -3.3744    8.6004 C   0  0  0  0  0  0  0  0  0  0  0  0
    1.1053   -4.6276    8.0055 C   0  0  0  0  0  0  0  0  0  0  0  0
   -0.0646   -5.1431    7.4768 C   0  0  0  0  0  0  0  0  0  0  0  0
   -1.2090   -4.3471    7.5447 C   0  0  0  0  0  0  0  0  0  0  0  0
    2.4313   -5.2179    8.0425 C   0  0  0  0  0  0  0  0  0  0  0  0
    2.7058   -6.3805    7.5400 N   0  0  0  0  0  0  0  0  0  0  0  0
    4.0609   -6.6786    7.7152 O   0  0  0  0  0  0  0  0  0  0  0  0
    3.3877   -4.2732    8.7315 C   0  0  0  0  0  0  0  0  0  0  0  0
    2.5476   -3.0388    9.0890 C   0  0  0  0  0  0  0  0  0  0  0  0
    4.1380   -7.5513    7.2869 H   0  0  0  0  0  0  0  0  0  0  0  0
   -8.5915    0.4255    4.6405 C   0  0  0  0  0  0  0  0  0  0  0  0
   -7.1676   -0.1294    4.7121 C   0  0  0  0  0  0  0  0  0  0  0  0
   -6.2438    0.8819    5.4175 C   0  0  0  0  0  0  0  0  0  0  0  0
   -4.8932    0.2739    5.7999 C   0  0  0  0  0  0  0  0  0  0  0  0
   -5.1886   -0.9027    6.5969 N   0  0  0  0  0  0  0  0  0  0  0  0
   -5.7715   -1.9751    5.8128 C   0  0  0  0  0  0  0  0  0  0  0  0
   -7.1718   -1.5059    5.4076 C   0  0  0  0  0  0  0  0  0  0  0  0
   -2.1362   -0.9439   10.3634 C   0  0  0  0  0  0  0  0  0  0  0  0
   -1.4953    0.2838   10.5058 C   0  0  0  0  0  0  0  0  0  0  0  0
   -1.0003    0.6157   11.7565 C   0  0  0  0  0  0  0  0  0  0  0  0
   -1.0922   -0.1827   12.8439 N   0  0  0  0  0  0  0  0  0  0  0  0
   -1.6947   -1.3771   12.6721 C   0  0  0  0  0  0  0  0  0  0  0  0
   -2.2240   -1.7994   11.4665 C   0  0  0  0  0  0  0  0  0  0  0  0
 18 19  1  0  0  0
 19 20  1  0  0  0
 20 21  1  0  0  0
 21 22  1  0  0  0
 22 23  1  0  0  0
 23 24  1  0  0  0
 19 24  1  0  0  0
 22  1  1  0  0  0
  1  2  1  0  0  0
  2  3  2  0  0  0
  3  4  1  0  0  0
  4  5  2  0  0  0
  1  5  1  0  0  0
  4 25  1  0  0  0
 25 26  2  0  0  0
 26 27  1  0  0  0
 27 28  2  0  0  0
 28 29  1  0  0  0
 29 30  2  0  0  0
 25 30  1  0  0  0
  3  6  1  0  0  0
  6  7  2  0  0  0
  7  8  1  0  0  0
  8  9  2  0  0  0
  9 10  1  0  0  0
 10 11  2  0  0  0
  6 11  1  0  0  0
  9 12  1  0  0  0
 12 13  2  0  0  0
 13 14  1  0  0  0
 12 15  1  0  0  0
 15 16  1  0  0  0
  8 16  1  0  0  0
 14 17  1  0  0  0
M  END
> <minimizedAffinity>
-10.59725

$$$$
mol_91896028_6


 30 34  0  0  0  0  0  0  0  0999 V2000
   -0.1902   -1.9031    9.7694 N   0  0  0  0  0  0  0  0  0  0  0  0
   -1.3938   -1.3506    9.4342 C   0  0  0  0  0  0  0  0  0  0  0  0
   -1.7726   -1.9245    8.2520 C   0  0  0  0  0  0  0  0  0  0  0  0
   -0.7145   -2.8220    7.9283 C   0  0  0  0  0  0  0  0  0  0  0  0
    0.2202   -2.8414    8.8957 N   0  0  0  0  0  0  0  0  0  0  0  0
   -3.0066   -1.6155    7.5676 C   0  0  0  0  0  0  0  0  0  0  0  0
   -3.8980   -2.6563    7.2657 C   0  0  0  0  0  0  0  0  0  0  0  0
   -5.0498   -2.3604    6.5585 C   0  0  0  0  0  0  0  0  0  0  0  0
   -5.3048   -1.0523    6.1670 C   0  0  0  0  0  0  0  0  0  0  0  0
   -4.4559   -0.0005    6.4620 C   0  0  0  0  0  0  0  0  0  0  0  0
   -3.2920   -0.2912    7.1754 C   0  0  0  0  0  0  0  0  0  0  0  0
   -6.5508   -1.0418    5.4219 C   0  0  0  0  0  0  0  0  0  0  0  0
   -7.0542    0.0295    4.8940 N   0  0  0  0  0  0  0  0  0  0  0  0
   -8.2493   -0.2695    4.2323 O   0  0  0  0  0  0  0  0  0  0  0  0
   -7.1214   -2.4394    5.3686 C   0  0  0  0  0  0  0  0  0  0  0  0
   -6.1082   -3.3174    6.1168 C   0  0  0  0  0  0  0  0  0  0  0  0
   -8.5096    0.5987    3.8725 H   0  0  0  0  0  0  0  0  0  0  0  0
    3.2438   -0.4622   13.8389 C   0  0  0  0  0  0  0  0  0  0  0  0
    1.9242   -0.3115   13.0796 C   0  0  0  0  0  0  0  0  0  0  0  0
    2.2003    0.1106   11.6237 C   0  0  0  0  0  0  0  0  0  0  0  0
    0.9649   -0.0214   10.7313 C   0  0  0  0  0  0  0  0  0  0  0  0
    0.5113   -1.3936   10.8661 N   0  0  0  0  0  0  0  0  0  0  0  0
   -0.0523   -1.6684   12.1743 C   0  0  0  0  0  0  0  0  0  0  0  0
    1.1117   -1.6193   13.1682 C   0  0  0  0  0  0  0  0  0  0  0  0
   -0.6176   -3.6177    6.7087 C   0  0  0  0  0  0  0  0  0  0  0  0
   -1.1794   -3.1718    5.5154 C   0  0  0  0  0  0  0  0  0  0  0  0
   -0.9284   -3.9047    4.3667 C   0  0  0  0  0  0  0  0  0  0  0  0
   -0.1806   -5.0308    4.3350 N   0  0  0  0  0  0  0  0  0  0  0  0
    0.3301   -5.4550    5.5091 C   0  0  0  0  0  0  0  0  0  0  0  0
    0.1405   -4.7931    6.7082 C   0  0  0  0  0  0  0  0  0  0  0  0
 18 19  1  0  0  0
 19 20  1  0  0  0
 20 21  1  0  0  0
 21 22  1  0  0  0
 22 23  1  0  0  0
 23 24  1  0  0  0
 19 24  1  0  0  0
 22  1  1  0  0  0
  1  2  1  0  0  0
  2  3  2  0  0  0
  3  4  1  0  0  0
  4  5  2  0  0  0
  1  5  1  0  0  0
  4 25  1  0  0  0
 25 26  2  0  0  0
 26 27  1  0  0  0
 27 28  2  0  0  0
 28 29  1  0  0  0
 29 30  2  0  0  0
 25 30  1  0  0  0
  3  6  1  0  0  0
  6  7  2  0  0  0
  7  8  1  0  0  0
  8  9  2  0  0  0
  9 10  1  0  0  0
 10 11  2  0  0  0
  6 11  1  0  0  0
  9 12  1  0  0  0
 12 13  2  0  0  0
 13 14  1  0  0  0
 12 15  1  0  0  0
 15 16  1  0  0  0
  8 16  1  0  0  0
 14 17  1  0  0  0
M  END
> <minimizedAffinity>
-10.26943

$$$$
mol_91896028_6


 30 34  0  0  0  0  0  0  0  0999 V2000
   -4.1963   -1.1622    6.7791 N   0  0  0  0  0  0  0  0  0  0  0  0
   -3.8201   -0.5241    7.9270 C   0  0  0  0  0  0  0  0  0  0  0  0
   -2.7120   -1.1765    8.3928 C   0  0  0  0  0  0  0  0  0  0  0  0
   -2.4872   -2.2257    7.4555 C   0  0  0  0  0  0  0  0  0  0  0  0
   -3.3692   -2.1692    6.4411 N   0  0  0  0  0  0  0  0  0  0  0  0
   -1.9978   -0.7943    9.5889 C   0  0  0  0  0  0  0  0  0  0  0  0
   -1.9864   -1.6699   10.6852 C   0  0  0  0  0  0  0  0  0  0  0  0
   -1.3498   -1.2713   11.8472 C   0  0  0  0  0  0  0  0  0  0  0  0
   -0.7353   -0.0270   11.9078 C   0  0  0  0  0  0  0  0  0  0  0  0
   -0.7137    0.8533   10.8408 C   0  0  0  0  0  0  0  0  0  0  0  0
   -1.3537    0.4580    9.6651 C   0  0  0  0  0  0  0  0  0  0  0  0
   -0.1835    0.1363   13.2408 C   0  0  0  0  0  0  0  0  0  0  0  0
    0.4338    1.2081   13.6279 N   0  0  0  0  0  0  0  0  0  0  0  0
    0.8426    1.0802   14.9591 O   0  0  0  0  0  0  0  0  0  0  0  0
   -0.4541   -1.1055   14.0572 C   0  0  0  0  0  0  0  0  0  0  0  0
   -1.2450   -2.0356   13.1262 C   0  0  0  0  0  0  0  0  0  0  0  0
    1.2682    1.9411   15.1287 H   0  0  0  0  0  0  0  0  0  0  0  0
   -9.2265    0.4415    5.1810 C   0  0  0  0  0  0  0  0  0  0  0  0
   -7.8063   -0.0336    4.8675 C   0  0  0  0  0  0  0  0  0  0  0  0
   -6.7812    0.9869    5.3981 C   0  0  0  0  0  0  0  0  0  0  0  0
   -5.3538    0.4367    5.3994 C   0  0  0  0  0  0  0  0  0  0  0  0
   -5.3958   -0.7991    6.1596 N   0  0  0  0  0  0  0  0  0  0  0  0
   -6.1073   -1.8562    5.4663 C   0  0  0  0  0  0  0  0  0  0  0  0
   -7.5826   -1.4459    5.4451 C   0  0  0  0  0  0  0  0  0  0  0  0
   -1.4562   -3.2532    7.5605 C   0  0  0  0  0  0  0  0  0  0  0  0
   -0.1236   -2.9122    7.7756 C   0  0  0  0  0  0  0  0  0  0  0  0
    0.7789   -3.9375    8.0079 C   0  0  0  0  0  0  0  0  0  0  0  0
    0.4474   -5.2481    8.0283 N   0  0  0  0  0  0  0  0  0  0  0  0
   -0.8450   -5.5524    7.7912 C   0  0  0  0  0  0  0  0  0  0  0  0
   -1.8219   -4.6032    7.5527 C   0  0  0  0  0  0  0  0  0  0  0  0
 18 19  1  0  0  0
 19 20  1  0  0  0
 20 21  1  0  0  0
 21 22  1  0  0  0
 22 23  1  0  0  0
 23 24  1  0  0  0
 19 24  1  0  0  0
 22  1  1  0  0  0
  1  2  1  0  0  0
  2  3  2  0  0  0
  3  4  1  0  0  0
  4  5  2  0  0  0
  1  5  1  0  0  0
  4 25  1  0  0  0
 25 26  2  0  0  0
 26 27  1  0  0  0
 27 28  2  0  0  0
 28 29  1  0  0  0
 29 30  2  0  0  0
 25 30  1  0  0  0
  3  6  1  0  0  0
  6  7  2  0  0  0
  7  8  1  0  0  0
  8  9  2  0  0  0
  9 10  1  0  0  0
 10 11  2  0  0  0
  6 11  1  0  0  0
  9 12  1  0  0  0
 12 13  2  0  0  0
 13 14  1  0  0  0
 12 15  1  0  0  0
 15 16  1  0  0  0
  8 16  1  0  0  0
 14 17  1  0  0  0
M  END
> <minimizedAffinity>
-10.22405

$$$$
mol_11624965_7


 30 34  0  0  0  0  0  0  0  0999 V2000
   -4.1972   -1.2713    7.5110 N   0  0  0  0  0  0  0  0  0  0  0  0
   -3.2367   -2.1638    7.1274 C   0  0  0  0  0  0  0  0  0  0  0  0
   -2.3236   -2.2179    8.1442 C   0  0  0  0  0  0  0  0  0  0  0  0
   -2.8104   -1.2997    9.1189 C   0  0  0  0  0  0  0  0  0  0  0  0
   -3.9890   -0.7708    8.7432 N   0  0  0  0  0  0  0  0  0  0  0  0
   -1.1537   -3.0650    8.1296 C   0  0  0  0  0  0  0  0  0  0  0  0
    0.0463   -2.5795    8.6711 C   0  0  0  0  0  0  0  0  0  0  0  0
    1.1766   -3.3744    8.6004 C   0  0  0  0  0  0  0  0  0  0  0  0
    1.1053   -4.6276    8.0055 C   0  0  0  0  0  0  0  0  0  0  0  0
   -0.0646   -5.1431    7.4768 C   0  0  0  0  0  0  0  0  0  0  0  0
   -1.2090   -4.3471    7.5447 C   0  0  0  0  0  0  0  0  0  0  0  0
    2.4313   -5.2179    8.0425 C   0  0  0  0  0  0  0  0  0  0  0  0
    2.7058   -6.3805    7.5400 N   0  0  0  0  0  0  0  0  0  0  0  0
    4.0609   -6.6786    7.7152 O   0  0  0  0  0  0  0  0  0  0  0  0
    3.3877   -4.2732    8.7315 C   0  0  0  0  0  0  0  0  0  0  0  0
    2.5476   -3.0388    9.0890 C   0  0  0  0  0  0  0  0  0  0  0  0
    4.1380   -7.5513    7.2869 H   0  0  0  0  0  0  0  0  0  0  0  0
   -8.5915    0.4255    4.6405 C   0  0  0  0  0  0  0  0  0  0  0  0
   -7.1676   -0.1294    4.7121 C   0  0  0  0  0  0  0  0  0  0  0  0
   -6.2438    0.8819    5.4175 C   0  0  0  0  0  0  0  0  0  0  0  0
   -4.8932    0.2739    5.7999 C   0  0  0  0  0  0  0  0  0  0  0  0
   -5.1886   -0.9027    6.5969 N   0  0  0  0  0  0  0  0  0  0  0  0
   -5.7715   -1.9751    5.8128 C   0  0  0  0  0  0  0  0  0  0  0  0
   -7.1718   -1.5059    5.4076 C   0  0  0  0  0  0  0  0  0  0  0  0
   -2.1362   -0.9439   10.3634 C   0  0  0  0  0  0  0  0  0  0  0  0
   -1.4953    0.2838   10.5058 C   0  0  0  0  0  0  0  0  0  0  0  0
   -1.0003    0.6157   11.7565 C   0  0  0  0  0  0  0  0  0  0  0  0
   -1.0922   -0.1827   12.8439 N   0  0  0  0  0  0  0  0  0  0  0  0
   -1.6947   -1.3771   12.6721 C   0  0  0  0  0  0  0  0  0  0  0  0
   -2.2240   -1.7994   11.4665 C   0  0  0  0  0  0  0  0  0  0  0  0
 18 19  1  0  0  0
 19 20  1  0  0  0
 20 21  1  0  0  0
 21 22  1  0  0  0
 22 23  1  0  0  0
 23 24  1  0  0  0
 19 24  1  0  0  0
 22  1  1  0  0  0
  1  2  1  0  0  0
  2  3  2  0  0  0
  3  4  1  0  0  0
  4  5  2  0  0  0
  1  5  1  0  0  0
  4 25  1  0  0  0
 25 26  2  0  0  0
 26 27  1  0  0  0
 27 28  2  0  0  0
 28 29  1  0  0  0
 29 30  2  0  0  0
 25 30  1  0  0  0
  3  6  1  0  0  0
  6  7  2  0  0  0
  7  8  1  0  0  0
  8  9  2  0  0  0
  9 10  1  0  0  0
 10 11  2  0  0  0
  6 11  1  0  0  0
  9 12  1  0  0  0
 12 13  2  0  0  0
 13 14  1  0  0  0
 12 15  1  0  0  0
 15 16  1  0  0  0
  8 16  1  0  0  0
 14 17  1  0  0  0
M  END
> <minimizedAffinity>
-10.59725

$$$$
mol_11624965_7


 30 34  0  0  0  0  0  0  0  0999 V2000
   -0.1902   -1.9031    9.7694 N   0  0  0  0  0  0  0  0  0  0  0  0
   -1.3938   -1.3506    9.4342 C   0  0  0  0  0  0  0  0  0  0  0  0
   -1.7726   -1.9245    8.2520 C   0  0  0  0  0  0  0  0  0  0  0  0
   -0.7145   -2.8220    7.9283 C   0  0  0  0  0  0  0  0  0  0  0  0
    0.2202   -2.8414    8.8957 N   0  0  0  0  0  0  0  0  0  0  0  0
   -3.0066   -1.6155    7.5676 C   0  0  0  0  0  0  0  0  0  0  0  0
   -3.8980   -2.6563    7.2657 C   0  0  0  0  0  0  0  0  0  0  0  0
   -5.0498   -2.3604    6.5585 C   0  0  0  0  0  0  0  0  0  0  0  0
   -5.3048   -1.0523    6.1670 C   0  0  0  0  0  0  0  0  0  0  0  0
   -4.4559   -0.0005    6.4620 C   0  0  0  0  0  0  0  0  0  0  0  0
   -3.2920   -0.2912    7.1754 C   0  0  0  0  0  0  0  0  0  0  0  0
   -6.5508   -1.0418    5.4219 C   0  0  0  0  0  0  0  0  0  0  0  0
   -7.0542    0.0295    4.8940 N   0  0  0  0  0  0  0  0  0  0  0  0
   -8.2493   -0.2695    4.2323 O   0  0  0  0  0  0  0  0  0  0  0  0
   -7.1214   -2.4394    5.3686 C   0  0  0  0  0  0  0  0  0  0  0  0
   -6.1082   -3.3174    6.1168 C   0  0  0  0  0  0  0  0  0  0  0  0
   -8.5096    0.5987    3.8725 H   0  0  0  0  0  0  0  0  0  0  0  0
    3.2438   -0.4622   13.8389 C   0  0  0  0  0  0  0  0  0  0  0  0
    1.9242   -0.3115   13.0796 C   0  0  0  0  0  0  0  0  0  0  0  0
    2.2003    0.1106   11.6237 C   0  0  0  0  0  0  0  0  0  0  0  0
    0.9649   -0.0214   10.7313 C   0  0  0  0  0  0  0  0  0  0  0  0
    0.5113   -1.3936   10.8661 N   0  0  0  0  0  0  0  0  0  0  0  0
   -0.0523   -1.6684   12.1743 C   0  0  0  0  0  0  0  0  0  0  0  0
    1.1117   -1.6193   13.1682 C   0  0  0  0  0  0  0  0  0  0  0  0
   -0.6176   -3.6177    6.7087 C   0  0  0  0  0  0  0  0  0  0  0  0
   -1.1794   -3.1718    5.5154 C   0  0  0  0  0  0  0  0  0  0  0  0
   -0.9284   -3.9047    4.3667 C   0  0  0  0  0  0  0  0  0  0  0  0
   -0.1806   -5.0308    4.3350 N   0  0  0  0  0  0  0  0  0  0  0  0
    0.3301   -5.4550    5.5091 C   0  0  0  0  0  0  0  0  0  0  0  0
    0.1405   -4.7931    6.7082 C   0  0  0  0  0  0  0  0  0  0  0  0
 18 19  1  0  0  0
 19 20  1  0  0  0
 20 21  1  0  0  0
 21 22  1  0  0  0
 22 23  1  0  0  0
 23 24  1  0  0  0
 19 24  1  0  0  0
 22  1  1  0  0  0
  1  2  1  0  0  0
  2  3  2  0  0  0
  3  4  1  0  0  0
  4  5  2  0  0  0
  1  5  1  0  0  0
  4 25  1  0  0  0
 25 26  2  0  0  0
 26 27  1  0  0  0
 27 28  2  0  0  0
 28 29  1  0  0  0
 29 30  2  0  0  0
 25 30  1  0  0  0
  3  6  1  0  0  0
  6  7  2  0  0  0
  7  8  1  0  0  0
  8  9  2  0  0  0
  9 10  1  0  0  0
 10 11  2  0  0  0
  6 11  1  0  0  0
  9 12  1  0  0  0
 12 13  2  0  0  0
 13 14  1  0  0  0
 12 15  1  0  0  0
 15 16  1  0  0  0
  8 16  1  0  0  0
 14 17  1  0  0  0
M  END
> <minimizedAffinity>
-10.26943

$$$$
mol_11624965_7


 30 34  0  0  0  0  0  0  0  0999 V2000
   -4.1963   -1.1622    6.7791 N   0  0  0  0  0  0  0  0  0  0  0  0
   -3.8201   -0.5241    7.9270 C   0  0  0  0  0  0  0  0  0  0  0  0
   -2.7120   -1.1765    8.3928 C   0  0  0  0  0  0  0  0  0  0  0  0
   -2.4872   -2.2257    7.4555 C   0  0  0  0  0  0  0  0  0  0  0  0
   -3.3692   -2.1692    6.4411 N   0  0  0  0  0  0  0  0  0  0  0  0
   -1.9978   -0.7943    9.5889 C   0  0  0  0  0  0  0  0  0  0  0  0
   -1.9864   -1.6699   10.6852 C   0  0  0  0  0  0  0  0  0  0  0  0
   -1.3498   -1.2713   11.8472 C   0  0  0  0  0  0  0  0  0  0  0  0
   -0.7353   -0.0270   11.9078 C   0  0  0  0  0  0  0  0  0  0  0  0
   -0.7137    0.8533   10.8408 C   0  0  0  0  0  0  0  0  0  0  0  0
   -1.3537    0.4580    9.6651 C   0  0  0  0  0  0  0  0  0  0  0  0
   -0.1835    0.1363   13.2408 C   0  0  0  0  0  0  0  0  0  0  0  0
    0.4338    1.2081   13.6279 N   0  0  0  0  0  0  0  0  0  0  0  0
    0.8426    1.0802   14.9591 O   0  0  0  0  0  0  0  0  0  0  0  0
   -0.4541   -1.1055   14.0572 C   0  0  0  0  0  0  0  0  0  0  0  0
   -1.2450   -2.0356   13.1262 C   0  0  0  0  0  0  0  0  0  0  0  0
    1.2682    1.9411   15.1287 H   0  0  0  0  0  0  0  0  0  0  0  0
   -9.2265    0.4415    5.1810 C   0  0  0  0  0  0  0  0  0  0  0  0
   -7.8063   -0.0336    4.8675 C   0  0  0  0  0  0  0  0  0  0  0  0
   -6.7812    0.9869    5.3981 C   0  0  0  0  0  0  0  0  0  0  0  0
   -5.3538    0.4367    5.3994 C   0  0  0  0  0  0  0  0  0  0  0  0
   -5.3958   -0.7991    6.1596 N   0  0  0  0  0  0  0  0  0  0  0  0
   -6.1073   -1.8562    5.4663 C   0  0  0  0  0  0  0  0  0  0  0  0
   -7.5826   -1.4459    5.4451 C   0  0  0  0  0  0  0  0  0  0  0  0
   -1.4562   -3.2532    7.5605 C   0  0  0  0  0  0  0  0  0  0  0  0
   -0.1236   -2.9122    7.7756 C   0  0  0  0  0  0  0  0  0  0  0  0
    0.7789   -3.9375    8.0079 C   0  0  0  0  0  0  0  0  0  0  0  0
    0.4474   -5.2481    8.0283 N   0  0  0  0  0  0  0  0  0  0  0  0
   -0.8450   -5.5524    7.7912 C   0  0  0  0  0  0  0  0  0  0  0  0
   -1.8219   -4.6032    7.5527 C   0  0  0  0  0  0  0  0  0  0  0  0
 18 19  1  0  0  0
 19 20  1  0  0  0
 20 21  1  0  0  0
 21 22  1  0  0  0
 22 23  1  0  0  0
 23 24  1  0  0  0
 19 24  1  0  0  0
 22  1  1  0  0  0
  1  2  1  0  0  0
  2  3  2  0  0  0
  3  4  1  0  0  0
  4  5  2  0  0  0
  1  5  1  0  0  0
  4 25  1  0  0  0
 25 26  2  0  0  0
 26 27  1  0  0  0
 27 28  2  0  0  0
 28 29  1  0  0  0
 29 30  2  0  0  0
 25 30  1  0  0  0
  3  6  1  0  0  0
  6  7  2  0  0  0
  7  8  1  0  0  0
  8  9  2  0  0  0
  9 10  1  0  0  0
 10 11  2  0  0  0
  6 11  1  0  0  0
  9 12  1  0  0  0
 12 13  2  0  0  0
 13 14  1  0  0  0
 12 15  1  0  0  0
 15 16  1  0  0  0
  8 16  1  0  0  0
 14 17  1  0  0  0
M  END
> <minimizedAffinity>
-10.22405

$$$$
mol_54586539_8


 30 34  0  0  0  0  0  0  0  0999 V2000
   -4.1972   -1.2713    7.5110 N   0  0  0  0  0  0  0  0  0  0  0  0
   -3.2367   -2.1638    7.1274 C   0  0  0  0  0  0  0  0  0  0  0  0
   -2.3236   -2.2179    8.1442 C   0  0  0  0  0  0  0  0  0  0  0  0
   -2.8104   -1.2997    9.1189 C   0  0  0  0  0  0  0  0  0  0  0  0
   -3.9890   -0.7708    8.7432 N   0  0  0  0  0  0  0  0  0  0  0  0
   -1.1537   -3.0650    8.1296 C   0  0  0  0  0  0  0  0  0  0  0  0
    0.0463   -2.5795    8.6711 C   0  0  0  0  0  0  0  0  0  0  0  0
    1.1766   -3.3744    8.6004 C   0  0  0  0  0  0  0  0  0  0  0  0
    1.1053   -4.6276    8.0055 C   0  0  0  0  0  0  0  0  0  0  0  0
   -0.0646   -5.1431    7.4768 C   0  0  0  0  0  0  0  0  0  0  0  0
   -1.2090   -4.3471    7.5447 C   0  0  0  0  0  0  0  0  0  0  0  0
    2.4313   -5.2179    8.0425 C   0  0  0  0  0  0  0  0  0  0  0  0
    2.7058   -6.3805    7.5400 N   0  0  0  0  0  0  0  0  0  0  0  0
    4.0609   -6.6786    7.7152 O   0  0  0  0  0  0  0  0  0  0  0  0
    3.3877   -4.2732    8.7315 C   0  0  0  0  0  0  0  0  0  0  0  0
    2.5476   -3.0388    9.0890 C   0  0  0  0  0  0  0  0  0  0  0  0
    4.1380   -7.5513    7.2869 H   0  0  0  0  0  0  0  0  0  0  0  0
   -8.5915    0.4255    4.6405 C   0  0  0  0  0  0  0  0  0  0  0  0
   -7.1676   -0.1294    4.7121 C   0  0  0  0  0  0  0  0  0  0  0  0
   -6.2438    0.8819    5.4175 C   0  0  0  0  0  0  0  0  0  0  0  0
   -4.8932    0.2739    5.7999 C   0  0  0  0  0  0  0  0  0  0  0  0
   -5.1886   -0.9027    6.5969 N   0  0  0  0  0  0  0  0  0  0  0  0
   -5.7715   -1.9751    5.8128 C   0  0  0  0  0  0  0  0  0  0  0  0
   -7.1718   -1.5059    5.4076 C   0  0  0  0  0  0  0  0  0  0  0  0
   -2.1362   -0.9439   10.3634 C   0  0  0  0  0  0  0  0  0  0  0  0
   -1.4953    0.2838   10.5058 C   0  0  0  0  0  0  0  0  0  0  0  0
   -1.0003    0.6157   11.7565 C   0  0  0  0  0  0  0  0  0  0  0  0
   -1.0922   -0.1827   12.8439 N   0  0  0  0  0  0  0  0  0  0  0  0
   -1.6947   -1.3771   12.6721 C   0  0  0  0  0  0  0  0  0  0  0  0
   -2.2240   -1.7994   11.4665 C   0  0  0  0  0  0  0  0  0  0  0  0
 18 19  1  0  0  0
 19 20  1  0  0  0
 20 21  1  0  0  0
 21 22  1  0  0  0
 22 23  1  0  0  0
 23 24  1  0  0  0
 19 24  1  0  0  0
 22  1  1  0  0  0
  1  2  1  0  0  0
  2  3  2  0  0  0
  3  4  1  0  0  0
  4  5  2  0  0  0
  1  5  1  0  0  0
  4 25  1  0  0  0
 25 26  2  0  0  0
 26 27  1  0  0  0
 27 28  2  0  0  0
 28 29  1  0  0  0
 29 30  2  0  0  0
 25 30  1  0  0  0
  3  6  1  0  0  0
  6  7  2  0  0  0
  7  8  1  0  0  0
  8  9  2  0  0  0
  9 10  1  0  0  0
 10 11  2  0  0  0
  6 11  1  0  0  0
  9 12  1  0  0  0
 12 13  2  0  0  0
 13 14  1  0  0  0
 12 15  1  0  0  0
 15 16  1  0  0  0
  8 16  1  0  0  0
 14 17  1  0  0  0
M  END
> <minimizedAffinity>
-10.59725

$$$$
mol_54586539_8


 30 34  0  0  0  0  0  0  0  0999 V2000
   -0.1902   -1.9031    9.7694 N   0  0  0  0  0  0  0  0  0  0  0  0
   -1.3938   -1.3506    9.4342 C   0  0  0  0  0  0  0  0  0  0  0  0
   -1.7726   -1.9245    8.2520 C   0  0  0  0  0  0  0  0  0  0  0  0
   -0.7145   -2.8220    7.9283 C   0  0  0  0  0  0  0  0  0  0  0  0
    0.2202   -2.8414    8.8957 N   0  0  0  0  0  0  0  0  0  0  0  0
   -3.0066   -1.6155    7.5676 C   0  0  0  0  0  0  0  0  0  0  0  0
   -3.8980   -2.6563    7.2657 C   0  0  0  0  0  0  0  0  0  0  0  0
   -5.0498   -2.3604    6.5585 C   0  0  0  0  0  0  0  0  0  0  0  0
   -5.3048   -1.0523    6.1670 C   0  0  0  0  0  0  0  0  0  0  0  0
   -4.4559   -0.0005    6.4620 C   0  0  0  0  0  0  0  0  0  0  0  0
   -3.2920   -0.2912    7.1754 C   0  0  0  0  0  0  0  0  0  0  0  0
   -6.5508   -1.0418    5.4219 C   0  0  0  0  0  0  0  0  0  0  0  0
   -7.0542    0.0295    4.8940 N   0  0  0  0  0  0  0  0  0  0  0  0
   -8.2493   -0.2695    4.2323 O   0  0  0  0  0  0  0  0  0  0  0  0
   -7.1214   -2.4394    5.3686 C   0  0  0  0  0  0  0  0  0  0  0  0
   -6.1082   -3.3174    6.1168 C   0  0  0  0  0  0  0  0  0  0  0  0
   -8.5096    0.5987    3.8725 H   0  0  0  0  0  0  0  0  0  0  0  0
    3.2438   -0.4622   13.8389 C   0  0  0  0  0  0  0  0  0  0  0  0
    1.9242   -0.3115   13.0796 C   0  0  0  0  0  0  0  0  0  0  0  0
    2.2003    0.1106   11.6237 C   0  0  0  0  0  0  0  0  0  0  0  0
    0.9649   -0.0214   10.7313 C   0  0  0  0  0  0  0  0  0  0  0  0
    0.5113   -1.3936   10.8661 N   0  0  0  0  0  0  0  0  0  0  0  0
   -0.0523   -1.6684   12.1743 C   0  0  0  0  0  0  0  0  0  0  0  0
    1.1117   -1.6193   13.1682 C   0  0  0  0  0  0  0  0  0  0  0  0
   -0.6176   -3.6177    6.7087 C   0  0  0  0  0  0  0  0  0  0  0  0
   -1.1794   -3.1718    5.5154 C   0  0  0  0  0  0  0  0  0  0  0  0
   -0.9284   -3.9047    4.3667 C   0  0  0  0  0  0  0  0  0  0  0  0
   -0.1806   -5.0308    4.3350 N   0  0  0  0  0  0  0  0  0  0  0  0
    0.3301   -5.4550    5.5091 C   0  0  0  0  0  0  0  0  0  0  0  0
    0.1405   -4.7931    6.7082 C   0  0  0  0  0  0  0  0  0  0  0  0
 18 19  1  0  0  0
 19 20  1  0  0  0
 20 21  1  0  0  0
 21 22  1  0  0  0
 22 23  1  0  0  0
 23 24  1  0  0  0
 19 24  1  0  0  0
 22  1  1  0  0  0
  1  2  1  0  0  0
  2  3  2  0  0  0
  3  4  1  0  0  0
  4  5  2  0  0  0
  1  5  1  0  0  0
  4 25  1  0  0  0
 25 26  2  0  0  0
 26 27  1  0  0  0
 27 28  2  0  0  0
 28 29  1  0  0  0
 29 30  2  0  0  0
 25 30  1  0  0  0
  3  6  1  0  0  0
  6  7  2  0  0  0
  7  8  1  0  0  0
  8  9  2  0  0  0
  9 10  1  0  0  0
 10 11  2  0  0  0
  6 11  1  0  0  0
  9 12  1  0  0  0
 12 13  2  0  0  0
 13 14  1  0  0  0
 12 15  1  0  0  0
 15 16  1  0  0  0
  8 16  1  0  0  0
 14 17  1  0  0  0
M  END
> <minimizedAffinity>
-10.26943

$$$$
mol_54586539_8


 30 34  0  0  0  0  0  0  0  0999 V2000
   -4.1963   -1.1622    6.7791 N   0  0  0  0  0  0  0  0  0  0  0  0
   -3.8201   -0.5241    7.9270 C   0  0  0  0  0  0  0  0  0  0  0  0
   -2.7120   -1.1765    8.3928 C   0  0  0  0  0  0  0  0  0  0  0  0
   -2.4872   -2.2257    7.4555 C   0  0  0  0  0  0  0  0  0  0  0  0
   -3.3692   -2.1692    6.4411 N   0  0  0  0  0  0  0  0  0  0  0  0
   -1.9978   -0.7943    9.5889 C   0  0  0  0  0  0  0  0  0  0  0  0
   -1.9864   -1.6699   10.6852 C   0  0  0  0  0  0  0  0  0  0  0  0
   -1.3498   -1.2713   11.8472 C   0  0  0  0  0  0  0  0  0  0  0  0
   -0.7353   -0.0270   11.9078 C   0  0  0  0  0  0  0  0  0  0  0  0
   -0.7137    0.8533   10.8408 C   0  0  0  0  0  0  0  0  0  0  0  0
   -1.3537    0.4580    9.6651 C   0  0  0  0  0  0  0  0  0  0  0  0
   -0.1835    0.1363   13.2408 C   0  0  0  0  0  0  0  0  0  0  0  0
    0.4338    1.2081   13.6279 N   0  0  0  0  0  0  0  0  0  0  0  0
    0.8426    1.0802   14.9591 O   0  0  0  0  0  0  0  0  0  0  0  0
   -0.4541   -1.1055   14.0572 C   0  0  0  0  0  0  0  0  0  0  0  0
   -1.2450   -2.0356   13.1262 C   0  0  0  0  0  0  0  0  0  0  0  0
    1.2682    1.9411   15.1287 H   0  0  0  0  0  0  0  0  0  0  0  0
   -9.2265    0.4415    5.1810 C   0  0  0  0  0  0  0  0  0  0  0  0
   -7.8063   -0.0336    4.8675 C   0  0  0  0  0  0  0  0  0  0  0  0
   -6.7812    0.9869    5.3981 C   0  0  0  0  0  0  0  0  0  0  0  0
   -5.3538    0.4367    5.3994 C   0  0  0  0  0  0  0  0  0  0  0  0
   -5.3958   -0.7991    6.1596 N   0  0  0  0  0  0  0  0  0  0  0  0
   -6.1073   -1.8562    5.4663 C   0  0  0  0  0  0  0  0  0  0  0  0
   -7.5826   -1.4459    5.4451 C   0  0  0  0  0  0  0  0  0  0  0  0
   -1.4562   -3.2532    7.5605 C   0  0  0  0  0  0  0  0  0  0  0  0
   -0.1236   -2.9122    7.7756 C   0  0  0  0  0  0  0  0  0  0  0  0
    0.7789   -3.9375    8.0079 C   0  0  0  0  0  0  0  0  0  0  0  0
    0.4474   -5.2481    8.0283 N   0  0  0  0  0  0  0  0  0  0  0  0
   -0.8450   -5.5524    7.7912 C   0  0  0  0  0  0  0  0  0  0  0  0
   -1.8219   -4.6032    7.5527 C   0  0  0  0  0  0  0  0  0  0  0  0
 18 19  1  0  0  0
 19 20  1  0  0  0
 20 21  1  0  0  0
 21 22  1  0  0  0
 22 23  1  0  0  0
 23 24  1  0  0  0
 19 24  1  0  0  0
 22  1  1  0  0  0
  1  2  1  0  0  0
  2  3  2  0  0  0
  3  4  1  0  0  0
  4  5  2  0  0  0
  1  5  1  0  0  0
  4 25  1  0  0  0
 25 26  2  0  0  0
 26 27  1  0  0  0
 27 28  2  0  0  0
 28 29  1  0  0  0
 29 30  2  0  0  0
 25 30  1  0  0  0
  3  6  1  0  0  0
  6  7  2  0  0  0
  7  8  1  0  0  0
  8  9  2  0  0  0
  9 10  1  0  0  0
 10 11  2  0  0  0
  6 11  1  0  0  0
  9 12  1  0  0  0
 12 13  2  0  0  0
 13 14  1  0  0  0
 12 15  1  0  0  0
 15 16  1  0  0  0
  8 16  1  0  0  0
 14 17  1  0  0  0
M  END
> <minimizedAffinity>
-10.22405

$$$$
mol_135438492_9


 30 34  0  0  0  0  0  0  0  0999 V2000
   -4.1972   -1.2713    7.5110 N   0  0  0  0  0  0  0  0  0  0  0  0
   -3.2367   -2.1638    7.1274 C   0  0  0  0  0  0  0  0  0  0  0  0
   -2.3236   -2.2179    8.1442 C   0  0  0  0  0  0  0  0  0  0  0  0
   -2.8104   -1.2997    9.1189 C   0  0  0  0  0  0  0  0  0  0  0  0
   -3.9890   -0.7708    8.7432 N   0  0  0  0  0  0  0  0  0  0  0  0
   -1.1537   -3.0650    8.1296 C   0  0  0  0  0  0  0  0  0  0  0  0
    0.0463   -2.5795    8.6711 C   0  0  0  0  0  0  0  0  0  0  0  0
    1.1766   -3.3744    8.6004 C   0  0  0  0  0  0  0  0  0  0  0  0
    1.1053   -4.6276    8.0055 C   0  0  0  0  0  0  0  0  0  0  0  0
   -0.0646   -5.1431    7.4768 C   0  0  0  0  0  0  0  0  0  0  0  0
   -1.2090   -4.3471    7.5447 C   0  0  0  0  0  0  0  0  0  0  0  0
    2.4313   -5.2179    8.0425 C   0  0  0  0  0  0  0  0  0  0  0  0
    2.7058   -6.3805    7.5400 N   0  0  0  0  0  0  0  0  0  0  0  0
    4.0609   -6.6786    7.7152 O   0  0  0  0  0  0  0  0  0  0  0  0
    3.3877   -4.2732    8.7315 C   0  0  0  0  0  0  0  0  0  0  0  0
    2.5476   -3.0388    9.0890 C   0  0  0  0  0  0  0  0  0  0  0  0
    4.1380   -7.5513    7.2869 H   0  0  0  0  0  0  0  0  0  0  0  0
   -8.5915    0.4255    4.6405 C   0  0  0  0  0  0  0  0  0  0  0  0
   -7.1676   -0.1294    4.7121 C   0  0  0  0  0  0  0  0  0  0  0  0
   -6.2438    0.8819    5.4175 C   0  0  0  0  0  0  0  0  0  0  0  0
   -4.8932    0.2739    5.7999 C   0  0  0  0  0  0  0  0  0  0  0  0
   -5.1886   -0.9027    6.5969 N   0  0  0  0  0  0  0  0  0  0  0  0
   -5.7715   -1.9751    5.8128 C   0  0  0  0  0  0  0  0  0  0  0  0
   -7.1718   -1.5059    5.4076 C   0  0  0  0  0  0  0  0  0  0  0  0
   -2.1362   -0.9439   10.3634 C   0  0  0  0  0  0  0  0  0  0  0  0
   -1.4953    0.2838   10.5058 C   0  0  0  0  0  0  0  0  0  0  0  0
   -1.0003    0.6157   11.7565 C   0  0  0  0  0  0  0  0  0  0  0  0
   -1.0922   -0.1827   12.8439 N   0  0  0  0  0  0  0  0  0  0  0  0
   -1.6947   -1.3771   12.6721 C   0  0  0  0  0  0  0  0  0  0  0  0
   -2.2240   -1.7994   11.4665 C   0  0  0  0  0  0  0  0  0  0  0  0
 18 19  1  0  0  0
 19 20  1  0  0  0
 20 21  1  0  0  0
 21 22  1  0  0  0
 22 23  1  0  0  0
 23 24  1  0  0  0
 19 24  1  0  0  0
 22  1  1  0  0  0
  1  2  1  0  0  0
  2  3  2  0  0  0
  3  4  1  0  0  0
  4  5  2  0  0  0
  1  5  1  0  0  0
  4 25  1  0  0  0
 25 26  2  0  0  0
 26 27  1  0  0  0
 27 28  2  0  0  0
 28 29  1  0  0  0
 29 30  2  0  0  0
 25 30  1  0  0  0
  3  6  1  0  0  0
  6  7  2  0  0  0
  7  8  1  0  0  0
  8  9  2  0  0  0
  9 10  1  0  0  0
 10 11  2  0  0  0
  6 11  1  0  0  0
  9 12  1  0  0  0
 12 13  2  0  0  0
 13 14  1  0  0  0
 12 15  1  0  0  0
 15 16  1  0  0  0
  8 16  1  0  0  0
 14 17  1  0  0  0
M  END
> <minimizedAffinity>
-10.59725

$$$$
mol_135438492_9


 30 34  0  0  0  0  0  0  0  0999 V2000
   -0.1902   -1.9031    9.7694 N   0  0  0  0  0  0  0  0  0  0  0  0
   -1.3938   -1.3506    9.4342 C   0  0  0  0  0  0  0  0  0  0  0  0
   -1.7726   -1.9245    8.2520 C   0  0  0  0  0  0  0  0  0  0  0  0
   -0.7145   -2.8220    7.9283 C   0  0  0  0  0  0  0  0  0  0  0  0
    0.2202   -2.8414    8.8957 N   0  0  0  0  0  0  0  0  0  0  0  0
   -3.0066   -1.6155    7.5676 C   0  0  0  0  0  0  0  0  0  0  0  0
   -3.8980   -2.6563    7.2657 C   0  0  0  0  0  0  0  0  0  0  0  0
   -5.0498   -2.3604    6.5585 C   0  0  0  0  0  0  0  0  0  0  0  0
   -5.3048   -1.0523    6.1670 C   0  0  0  0  0  0  0  0  0  0  0  0
   -4.4559   -0.0005    6.4620 C   0  0  0  0  0  0  0  0  0  0  0  0
   -3.2920   -0.2912    7.1754 C   0  0  0  0  0  0  0  0  0  0  0  0
   -6.5508   -1.0418    5.4219 C   0  0  0  0  0  0  0  0  0  0  0  0
   -7.0542    0.0295    4.8940 N   0  0  0  0  0  0  0  0  0  0  0  0
   -8.2493   -0.2695    4.2323 O   0  0  0  0  0  0  0  0  0  0  0  0
   -7.1214   -2.4394    5.3686 C   0  0  0  0  0  0  0  0  0  0  0  0
   -6.1082   -3.3174    6.1168 C   0  0  0  0  0  0  0  0  0  0  0  0
   -8.5096    0.5987    3.8725 H   0  0  0  0  0  0  0  0  0  0  0  0
    3.2438   -0.4622   13.8389 C   0  0  0  0  0  0  0  0  0  0  0  0
    1.9242   -0.3115   13.0796 C   0  0  0  0  0  0  0  0  0  0  0  0
    2.2003    0.1106   11.6237 C   0  0  0  0  0  0  0  0  0  0  0  0
    0.9649   -0.0214   10.7313 C   0  0  0  0  0  0  0  0  0  0  0  0
    0.5113   -1.3936   10.8661 N   0  0  0  0  0  0  0  0  0  0  0  0
   -0.0523   -1.6684   12.1743 C   0  0  0  0  0  0  0  0  0  0  0  0
    1.1117   -1.6193   13.1682 C   0  0  0  0  0  0  0  0  0  0  0  0
   -0.6176   -3.6177    6.7087 C   0  0  0  0  0  0  0  0  0  0  0  0
   -1.1794   -3.1718    5.5154 C   0  0  0  0  0  0  0  0  0  0  0  0
   -0.9284   -3.9047    4.3667 C   0  0  0  0  0  0  0  0  0  0  0  0
   -0.1806   -5.0308    4.3350 N   0  0  0  0  0  0  0  0  0  0  0  0
    0.3301   -5.4550    5.5091 C   0  0  0  0  0  0  0  0  0  0  0  0
    0.1405   -4.7931    6.7082 C   0  0  0  0  0  0  0  0  0  0  0  0
 18 19  1  0  0  0
 19 20  1  0  0  0
 20 21  1  0  0  0
 21 22  1  0  0  0
 22 23  1  0  0  0
 23 24  1  0  0  0
 19 24  1  0  0  0
 22  1  1  0  0  0
  1  2  1  0  0  0
  2  3  2  0  0  0
  3  4  1  0  0  0
  4  5  2  0  0  0
  1  5  1  0  0  0
  4 25  1  0  0  0
 25 26  2  0  0  0
 26 27  1  0  0  0
 27 28  2  0  0  0
 28 29  1  0  0  0
 29 30  2  0  0  0
 25 30  1  0  0  0
  3  6  1  0  0  0
  6  7  2  0  0  0
  7  8  1  0  0  0
  8  9  2  0  0  0
  9 10  1  0  0  0
 10 11  2  0  0  0
  6 11  1  0  0  0
  9 12  1  0  0  0
 12 13  2  0  0  0
 13 14  1  0  0  0
 12 15  1  0  0  0
 15 16  1  0  0  0
  8 16  1  0  0  0
 14 17  1  0  0  0
M  END
> <minimizedAffinity>
-10.26943

$$$$
mol_135438492_9


 30 34  0  0  0  0  0  0  0  0999 V2000
   -4.1963   -1.1622    6.7791 N   0  0  0  0  0  0  0  0  0  0  0  0
   -3.8201   -0.5241    7.9270 C   0  0  0  0  0  0  0  0  0  0  0  0
   -2.7120   -1.1765    8.3928 C   0  0  0  0  0  0  0  0  0  0  0  0
   -2.4872   -2.2257    7.4555 C   0  0  0  0  0  0  0  0  0  0  0  0
   -3.3692   -2.1692    6.4411 N   0  0  0  0  0  0  0  0  0  0  0  0
   -1.9978   -0.7943    9.5889 C   0  0  0  0  0  0  0  0  0  0  0  0
   -1.9864   -1.6699   10.6852 C   0  0  0  0  0  0  0  0  0  0  0  0
   -1.3498   -1.2713   11.8472 C   0  0  0  0  0  0  0  0  0  0  0  0
   -0.7353   -0.0270   11.9078 C   0  0  0  0  0  0  0  0  0  0  0  0
   -0.7137    0.8533   10.8408 C   0  0  0  0  0  0  0  0  0  0  0  0
   -1.3537    0.4580    9.6651 C   0  0  0  0  0  0  0  0  0  0  0  0
   -0.1835    0.1363   13.2408 C   0  0  0  0  0  0  0  0  0  0  0  0
    0.4338    1.2081   13.6279 N   0  0  0  0  0  0  0  0  0  0  0  0
    0.8426    1.0802   14.9591 O   0  0  0  0  0  0  0  0  0  0  0  0
   -0.4541   -1.1055   14.0572 C   0  0  0  0  0  0  0  0  0  0  0  0
   -1.2450   -2.0356   13.1262 C   0  0  0  0  0  0  0  0  0  0  0  0
    1.2682    1.9411   15.1287 H   0  0  0  0  0  0  0  0  0  0  0  0
   -9.2265    0.4415    5.1810 C   0  0  0  0  0  0  0  0  0  0  0  0
   -7.8063   -0.0336    4.8675 C   0  0  0  0  0  0  0  0  0  0  0  0
   -6.7812    0.9869    5.3981 C   0  0  0  0  0  0  0  0  0  0  0  0
   -5.3538    0.4367    5.3994 C   0  0  0  0  0  0  0  0  0  0  0  0
   -5.3958   -0.7991    6.1596 N   0  0  0  0  0  0  0  0  0  0  0  0
   -6.1073   -1.8562    5.4663 C   0  0  0  0  0  0  0  0  0  0  0  0
   -7.5826   -1.4459    5.4451 C   0  0  0  0  0  0  0  0  0  0  0  0
   -1.4562   -3.2532    7.5605 C   0  0  0  0  0  0  0  0  0  0  0  0
   -0.1236   -2.9122    7.7756 C   0  0  0  0  0  0  0  0  0  0  0  0
    0.7789   -3.9375    8.0079 C   0  0  0  0  0  0  0  0  0  0  0  0
    0.4474   -5.2481    8.0283 N   0  0  0  0  0  0  0  0  0  0  0  0
   -0.8450   -5.5524    7.7912 C   0  0  0  0  0  0  0  0  0  0  0  0
   -1.8219   -4.6032    7.5527 C   0  0  0  0  0  0  0  0  0  0  0  0
 18 19  1  0  0  0
 19 20  1  0  0  0
 20 21  1  0  0  0
 21 22  1  0  0  0
 22 23  1  0  0  0
 23 24  1  0  0  0
 19 24  1  0  0  0
 22  1  1  0  0  0
  1  2  1  0  0  0
  2  3  2  0  0  0
  3  4  1  0  0  0
  4  5  2  0  0  0
  1  5  1  0  0  0
  4 25  1  0  0  0
 25 26  2  0  0  0
 26 27  1  0  0  0
 27 28  2  0  0  0
 28 29  1  0  0  0
 29 30  2  0  0  0
 25 30  1  0  0  0
  3  6  1  0  0  0
  6  7  2  0  0  0
  7  8  1  0  0  0
  8  9  2  0  0  0
  9 10  1  0  0  0
 10 11  2  0  0  0
  6 11  1  0  0  0
  9 12  1  0  0  0
 12 13  2  0  0  0
 13 14  1  0  0  0
 12 15  1  0  0  0
 15 16  1  0  0  0
  8 16  1  0  0  0
 14 17  1  0  0  0
M  END
> <minimizedAffinity>
-10.22405

$$$$
mol_11717001_10


 30 34  0  0  0  0  0  0  0  0999 V2000
   -4.1972   -1.2713    7.5110 N   0  0  0  0  0  0  0  0  0  0  0  0
   -3.2367   -2.1638    7.1274 C   0  0  0  0  0  0  0  0  0  0  0  0
   -2.3236   -2.2179    8.1442 C   0  0  0  0  0  0  0  0  0  0  0  0
   -2.8104   -1.2997    9.1189 C   0  0  0  0  0  0  0  0  0  0  0  0
   -3.9890   -0.7708    8.7432 N   0  0  0  0  0  0  0  0  0  0  0  0
   -1.1537   -3.0650    8.1296 C   0  0  0  0  0  0  0  0  0  0  0  0
    0.0463   -2.5795    8.6711 C   0  0  0  0  0  0  0  0  0  0  0  0
    1.1766   -3.3744    8.6004 C   0  0  0  0  0  0  0  0  0  0  0  0
    1.1053   -4.6276    8.0055 C   0  0  0  0  0  0  0  0  0  0  0  0
   -0.0646   -5.1431    7.4768 C   0  0  0  0  0  0  0  0  0  0  0  0
   -1.2090   -4.3471    7.5447 C   0  0  0  0  0  0  0  0  0  0  0  0
    2.4313   -5.2179    8.0425 C   0  0  0  0  0  0  0  0  0  0  0  0
    2.7058   -6.3805    7.5400 N   0  0  0  0  0  0  0  0  0  0  0  0
    4.0609   -6.6786    7.7152 O   0  0  0  0  0  0  0  0  0  0  0  0
    3.3877   -4.2732    8.7315 C   0  0  0  0  0  0  0  0  0  0  0  0
    2.5476   -3.0388    9.0890 C   0  0  0  0  0  0  0  0  0  0  0  0
    4.1380   -7.5513    7.2869 H   0  0  0  0  0  0  0  0  0  0  0  0
   -8.5915    0.4255    4.6405 C   0  0  0  0  0  0  0  0  0  0  0  0
   -7.1676   -0.1294    4.7121 C   0  0  0  0  0  0  0  0  0  0  0  0
   -6.2438    0.8819    5.4175 C   0  0  0  0  0  0  0  0  0  0  0  0
   -4.8932    0.2739    5.7999 C   0  0  0  0  0  0  0  0  0  0  0  0
   -5.1886   -0.9027    6.5969 N   0  0  0  0  0  0  0  0  0  0  0  0
   -5.7715   -1.9751    5.8128 C   0  0  0  0  0  0  0  0  0  0  0  0
   -7.1718   -1.5059    5.4076 C   0  0  0  0  0  0  0  0  0  0  0  0
   -2.1362   -0.9439   10.3634 C   0  0  0  0  0  0  0  0  0  0  0  0
   -1.4953    0.2838   10.5058 C   0  0  0  0  0  0  0  0  0  0  0  0
   -1.0003    0.6157   11.7565 C   0  0  0  0  0  0  0  0  0  0  0  0
   -1.0922   -0.1827   12.8439 N   0  0  0  0  0  0  0  0  0  0  0  0
   -1.6947   -1.3771   12.6721 C   0  0  0  0  0  0  0  0  0  0  0  0
   -2.2240   -1.7994   11.4665 C   0  0  0  0  0  0  0  0  0  0  0  0
 18 19  1  0  0  0
 19 20  1  0  0  0
 20 21  1  0  0  0
 21 22  1  0  0  0
 22 23  1  0  0  0
 23 24  1  0  0  0
 19 24  1  0  0  0
 22  1  1  0  0  0
  1  2  1  0  0  0
  2  3  2  0  0  0
  3  4  1  0  0  0
  4  5  2  0  0  0
  1  5  1  0  0  0
  4 25  1  0  0  0
 25 26  2  0  0  0
 26 27  1  0  0  0
 27 28  2  0  0  0
 28 29  1  0  0  0
 29 30  2  0  0  0
 25 30  1  0  0  0
  3  6  1  0  0  0
  6  7  2  0  0  0
  7  8  1  0  0  0
  8  9  2  0  0  0
  9 10  1  0  0  0
 10 11  2  0  0  0
  6 11  1  0  0  0
  9 12  1  0  0  0
 12 13  2  0  0  0
 13 14  1  0  0  0
 12 15  1  0  0  0
 15 16  1  0  0  0
  8 16  1  0  0  0
 14 17  1  0  0  0
M  END
> <minimizedAffinity>
-10.59725

$$$$
mol_11717001_10


 30 34  0  0  0  0  0  0  0  0999 V2000
   -0.1902   -1.9031    9.7694 N   0  0  0  0  0  0  0  0  0  0  0  0
   -1.3938   -1.3506    9.4342 C   0  0  0  0  0  0  0  0  0  0  0  0
   -1.7726   -1.9245    8.2520 C   0  0  0  0  0  0  0  0  0  0  0  0
   -0.7145   -2.8220    7.9283 C   0  0  0  0  0  0  0  0  0  0  0  0
    0.2202   -2.8414    8.8957 N   0  0  0  0  0  0  0  0  0  0  0  0
   -3.0066   -1.6155    7.5676 C   0  0  0  0  0  0  0  0  0  0  0  0
   -3.8980   -2.6563    7.2657 C   0  0  0  0  0  0  0  0  0  0  0  0
   -5.0498   -2.3604    6.5585 C   0  0  0  0  0  0  0  0  0  0  0  0
   -5.3048   -1.0523    6.1670 C   0  0  0  0  0  0  0  0  0  0  0  0
   -4.4559   -0.0005    6.4620 C   0  0  0  0  0  0  0  0  0  0  0  0
   -3.2920   -0.2912    7.1754 C   0  0  0  0  0  0  0  0  0  0  0  0
   -6.5508   -1.0418    5.4219 C   0  0  0  0  0  0  0  0  0  0  0  0
   -7.0542    0.0295    4.8940 N   0  0  0  0  0  0  0  0  0  0  0  0
   -8.2493   -0.2695    4.2323 O   0  0  0  0  0  0  0  0  0  0  0  0
   -7.1214   -2.4394    5.3686 C   0  0  0  0  0  0  0  0  0  0  0  0
   -6.1082   -3.3174    6.1168 C   0  0  0  0  0  0  0  0  0  0  0  0
   -8.5096    0.5987    3.8725 H   0  0  0  0  0  0  0  0  0  0  0  0
    3.2438   -0.4622   13.8389 C   0  0  0  0  0  0  0  0  0  0  0  0
    1.9242   -0.3115   13.0796 C   0  0  0  0  0  0  0  0  0  0  0  0
    2.2003    0.1106   11.6237 C   0  0  0  0  0  0  0  0  0  0  0  0
    0.9649   -0.0214   10.7313 C   0  0  0  0  0  0  0  0  0  0  0  0
    0.5113   -1.3936   10.8661 N   0  0  0  0  0  0  0  0  0  0  0  0
   -0.0523   -1.6684   12.1743 C   0  0  0  0  0  0  0  0  0  0  0  0
    1.1117   -1.6193   13.1682 C   0  0  0  0  0  0  0  0  0  0  0  0
   -0.6176   -3.6177    6.7087 C   0  0  0  0  0  0  0  0  0  0  0  0
   -1.1794   -3.1718    5.5154 C   0  0  0  0  0  0  0  0  0  0  0  0
   -0.9284   -3.9047    4.3667 C   0  0  0  0  0  0  0  0  0  0  0  0
   -0.1806   -5.0308    4.3350 N   0  0  0  0  0  0  0  0  0  0  0  0
    0.3301   -5.4550    5.5091 C   0  0  0  0  0  0  0  0  0  0  0  0
    0.1405   -4.7931    6.7082 C   0  0  0  0  0  0  0  0  0  0  0  0
 18 19  1  0  0  0
 19 20  1  0  0  0
 20 21  1  0  0  0
 21 22  1  0  0  0
 22 23  1  0  0  0
 23 24  1  0  0  0
 19 24  1  0  0  0
 22  1  1  0  0  0
  1  2  1  0  0  0
  2  3  2  0  0  0
  3  4  1  0  0  0
  4  5  2  0  0  0
  1  5  1  0  0  0
  4 25  1  0  0  0
 25 26  2  0  0  0
 26 27  1  0  0  0
 27 28  2  0  0  0
 28 29  1  0  0  0
 29 30  2  0  0  0
 25 30  1  0  0  0
  3  6  1  0  0  0
  6  7  2  0  0  0
  7  8  1  0  0  0
  8  9  2  0  0  0
  9 10  1  0  0  0
 10 11  2  0  0  0
  6 11  1  0  0  0
  9 12  1  0  0  0
 12 13  2  0  0  0
 13 14  1  0  0  0
 12 15  1  0  0  0
 15 16  1  0  0  0
  8 16  1  0  0  0
 14 17  1  0  0  0
M  END
> <minimizedAffinity>
-10.26943

$$$$
mol_11717001_10


 30 34  0  0  0  0  0  0  0  0999 V2000
   -4.1963   -1.1622    6.7791 N   0  0  0  0  0  0  0  0  0  0  0  0
   -3.8201   -0.5241    7.9270 C   0  0  0  0  0  0  0  0  0  0  0  0
   -2.7120   -1.1765    8.3928 C   0  0  0  0  0  0  0  0  0  0  0  0
   -2.4872   -2.2257    7.4555 C   0  0  0  0  0  0  0  0  0  0  0  0
   -3.3692   -2.1692    6.4411 N   0  0  0  0  0  0  0  0  0  0  0  0
   -1.9978   -0.7943    9.5889 C   0  0  0  0  0  0  0  0  0  0  0  0
   -1.9864   -1.6699   10.6852 C   0  0  0  0  0  0  0  0  0  0  0  0
   -1.3498   -1.2713   11.8472 C   0  0  0  0  0  0  0  0  0  0  0  0
   -0.7353   -0.0270   11.9078 C   0  0  0  0  0  0  0  0  0  0  0  0
   -0.7137    0.8533   10.8408 C   0  0  0  0  0  0  0  0  0  0  0  0
   -1.3537    0.4580    9.6651 C   0  0  0  0  0  0  0  0  0  0  0  0
   -0.1835    0.1363   13.2408 C   0  0  0  0  0  0  0  0  0  0  0  0
    0.4338    1.2081   13.6279 N   0  0  0  0  0  0  0  0  0  0  0  0
    0.8426    1.0802   14.9591 O   0  0  0  0  0  0  0  0  0  0  0  0
   -0.4541   -1.1055   14.0572 C   0  0  0  0  0  0  0  0  0  0  0  0
   -1.2450   -2.0356   13.1262 C   0  0  0  0  0  0  0  0  0  0  0  0
    1.2682    1.9411   15.1287 H   0  0  0  0  0  0  0  0  0  0  0  0
   -9.2265    0.4415    5.1810 C   0  0  0  0  0  0  0  0  0  0  0  0
   -7.8063   -0.0336    4.8675 C   0  0  0  0  0  0  0  0  0  0  0  0
   -6.7812    0.9869    5.3981 C   0  0  0  0  0  0  0  0  0  0  0  0
   -5.3538    0.4367    5.3994 C   0  0  0  0  0  0  0  0  0  0  0  0
   -5.3958   -0.7991    6.1596 N   0  0  0  0  0  0  0  0  0  0  0  0
   -6.1073   -1.8562    5.4663 C   0  0  0  0  0  0  0  0  0  0  0  0
   -7.5826   -1.4459    5.4451 C   0  0  0  0  0  0  0  0  0  0  0  0
   -1.4562   -3.2532    7.5605 C   0  0  0  0  0  0  0  0  0  0  0  0
   -0.1236   -2.9122    7.7756 C   0  0  0  0  0  0  0  0  0  0  0  0
    0.7789   -3.9375    8.0079 C   0  0  0  0  0  0  0  0  0  0  0  0
    0.4474   -5.2481    8.0283 N   0  0  0  0  0  0  0  0  0  0  0  0
   -0.8450   -5.5524    7.7912 C   0  0  0  0  0  0  0  0  0  0  0  0
   -1.8219   -4.6032    7.5527 C   0  0  0  0  0  0  0  0  0  0  0  0
 18 19  1  0  0  0
 19 20  1  0  0  0
 20 21  1  0  0  0
 21 22  1  0  0  0
 22 23  1  0  0  0
 23 24  1  0  0  0
 19 24  1  0  0  0
 22  1  1  0  0  0
  1  2  1  0  0  0
  2  3  2  0  0  0
  3  4  1  0  0  0
  4  5  2  0  0  0
  1  5  1  0  0  0
  4 25  1  0  0  0
 25 26  2  0  0  0
 26 27  1  0  0  0
 27 28  2  0  0  0
 28 29  1  0  0  0
 29 30  2  0  0  0
 25 30  1  0  0  0
  3  6  1  0  0  0
  6  7  2  0  0  0
  7  8  1  0  0  0
  8  9  2  0  0  0
  9 10  1  0  0  0
 10 11  2  0  0  0
  6 11  1  0  0  0
  9 12  1  0  0  0
 12 13  2  0  0  0
 13 14  1  0  0  0
 12 15  1  0  0  0
 15 16  1  0  0  0
  8 16  1  0  0  0
 14 17  1  0  0  0
M  END
> <minimizedAffinity>
-10.22405

$$$$
mol_44587235_11


 30 34  0  0  0  0  0  0  0  0999 V2000
   -4.1972   -1.2713    7.5110 N   0  0  0  0  0  0  0  0  0  0  0  0
   -3.2367   -2.1638    7.1274 C   0  0  0  0  0  0  0  0  0  0  0  0
   -2.3236   -2.2179    8.1442 C   0  0  0  0  0  0  0  0  0  0  0  0
   -2.8104   -1.2997    9.1189 C   0  0  0  0  0  0  0  0  0  0  0  0
   -3.9890   -0.7708    8.7432 N   0  0  0  0  0  0  0  0  0  0  0  0
   -1.1537   -3.0650    8.1296 C   0  0  0  0  0  0  0  0  0  0  0  0
    0.0463   -2.5795    8.6711 C   0  0  0  0  0  0  0  0  0  0  0  0
    1.1766   -3.3744    8.6004 C   0  0  0  0  0  0  0  0  0  0  0  0
    1.1053   -4.6276    8.0055 C   0  0  0  0  0  0  0  0  0  0  0  0
   -0.0646   -5.1431    7.4768 C   0  0  0  0  0  0  0  0  0  0  0  0
   -1.2090   -4.3471    7.5447 C   0  0  0  0  0  0  0  0  0  0  0  0
    2.4313   -5.2179    8.0425 C   0  0  0  0  0  0  0  0  0  0  0  0
    2.7058   -6.3805    7.5400 N   0  0  0  0  0  0  0  0  0  0  0  0
    4.0609   -6.6786    7.7152 O   0  0  0  0  0  0  0  0  0  0  0  0
    3.3877   -4.2732    8.7315 C   0  0  0  0  0  0  0  0  0  0  0  0
    2.5476   -3.0388    9.0890 C   0  0  0  0  0  0  0  0  0  0  0  0
    4.1380   -7.5513    7.2869 H   0  0  0  0  0  0  0  0  0  0  0  0
   -8.5915    0.4255    4.6405 C   0  0  0  0  0  0  0  0  0  0  0  0
   -7.1676   -0.1294    4.7121 C   0  0  0  0  0  0  0  0  0  0  0  0
   -6.2438    0.8819    5.4175 C   0  0  0  0  0  0  0  0  0  0  0  0
   -4.8932    0.2739    5.7999 C   0  0  0  0  0  0  0  0  0  0  0  0
   -5.1886   -0.9027    6.5969 N   0  0  0  0  0  0  0  0  0  0  0  0
   -5.7715   -1.9751    5.8128 C   0  0  0  0  0  0  0  0  0  0  0  0
   -7.1718   -1.5059    5.4076 C   0  0  0  0  0  0  0  0  0  0  0  0
   -2.1362   -0.9439   10.3634 C   0  0  0  0  0  0  0  0  0  0  0  0
   -1.4953    0.2838   10.5058 C   0  0  0  0  0  0  0  0  0  0  0  0
   -1.0003    0.6157   11.7565 C   0  0  0  0  0  0  0  0  0  0  0  0
   -1.0922   -0.1827   12.8439 N   0  0  0  0  0  0  0  0  0  0  0  0
   -1.6947   -1.3771   12.6721 C   0  0  0  0  0  0  0  0  0  0  0  0
   -2.2240   -1.7994   11.4665 C   0  0  0  0  0  0  0  0  0  0  0  0
 18 19  1  0  0  0
 19 20  1  0  0  0
 20 21  1  0  0  0
 21 22  1  0  0  0
 22 23  1  0  0  0
 23 24  1  0  0  0
 19 24  1  0  0  0
 22  1  1  0  0  0
  1  2  1  0  0  0
  2  3  2  0  0  0
  3  4  1  0  0  0
  4  5  2  0  0  0
  1  5  1  0  0  0
  4 25  1  0  0  0
 25 26  2  0  0  0
 26 27  1  0  0  0
 27 28  2  0  0  0
 28 29  1  0  0  0
 29 30  2  0  0  0
 25 30  1  0  0  0
  3  6  1  0  0  0
  6  7  2  0  0  0
  7  8  1  0  0  0
  8  9  2  0  0  0
  9 10  1  0  0  0
 10 11  2  0  0  0
  6 11  1  0  0  0
  9 12  1  0  0  0
 12 13  2  0  0  0
 13 14  1  0  0  0
 12 15  1  0  0  0
 15 16  1  0  0  0
  8 16  1  0  0  0
 14 17  1  0  0  0
M  END
> <minimizedAffinity>
-10.59725

$$$$
mol_44587235_11


 30 34  0  0  0  0  0  0  0  0999 V2000
   -0.1902   -1.9031    9.7694 N   0  0  0  0  0  0  0  0  0  0  0  0
   -1.3938   -1.3506    9.4342 C   0  0  0  0  0  0  0  0  0  0  0  0
   -1.7726   -1.9245    8.2520 C   0  0  0  0  0  0  0  0  0  0  0  0
   -0.7145   -2.8220    7.9283 C   0  0  0  0  0  0  0  0  0  0  0  0
    0.2202   -2.8414    8.8957 N   0  0  0  0  0  0  0  0  0  0  0  0
   -3.0066   -1.6155    7.5676 C   0  0  0  0  0  0  0  0  0  0  0  0
   -3.8980   -2.6563    7.2657 C   0  0  0  0  0  0  0  0  0  0  0  0
   -5.0498   -2.3604    6.5585 C   0  0  0  0  0  0  0  0  0  0  0  0
   -5.3048   -1.0523    6.1670 C   0  0  0  0  0  0  0  0  0  0  0  0
   -4.4559   -0.0005    6.4620 C   0  0  0  0  0  0  0  0  0  0  0  0
   -3.2920   -0.2912    7.1754 C   0  0  0  0  0  0  0  0  0  0  0  0
   -6.5508   -1.0418    5.4219 C   0  0  0  0  0  0  0  0  0  0  0  0
   -7.0542    0.0295    4.8940 N   0  0  0  0  0  0  0  0  0  0  0  0
   -8.2493   -0.2695    4.2323 O   0  0  0  0  0  0  0  0  0  0  0  0
   -7.1214   -2.4394    5.3686 C   0  0  0  0  0  0  0  0  0  0  0  0
   -6.1082   -3.3174    6.1168 C   0  0  0  0  0  0  0  0  0  0  0  0
   -8.5096    0.5987    3.8725 H   0  0  0  0  0  0  0  0  0  0  0  0
    3.2438   -0.4622   13.8389 C   0  0  0  0  0  0  0  0  0  0  0  0
    1.9242   -0.3115   13.0796 C   0  0  0  0  0  0  0  0  0  0  0  0
    2.2003    0.1106   11.6237 C   0  0  0  0  0  0  0  0  0  0  0  0
    0.9649   -0.0214   10.7313 C   0  0  0  0  0  0  0  0  0  0  0  0
    0.5113   -1.3936   10.8661 N   0  0  0  0  0  0  0  0  0  0  0  0
   -0.0523   -1.6684   12.1743 C   0  0  0  0  0  0  0  0  0  0  0  0
    1.1117   -1.6193   13.1682 C   0  0  0  0  0  0  0  0  0  0  0  0
   -0.6176   -3.6177    6.7087 C   0  0  0  0  0  0  0  0  0  0  0  0
   -1.1794   -3.1718    5.5154 C   0  0  0  0  0  0  0  0  0  0  0  0
   -0.9284   -3.9047    4.3667 C   0  0  0  0  0  0  0  0  0  0  0  0
   -0.1806   -5.0308    4.3350 N   0  0  0  0  0  0  0  0  0  0  0  0
    0.3301   -5.4550    5.5091 C   0  0  0  0  0  0  0  0  0  0  0  0
    0.1405   -4.7931    6.7082 C   0  0  0  0  0  0  0  0  0  0  0  0
 18 19  1  0  0  0
 19 20  1  0  0  0
 20 21  1  0  0  0
 21 22  1  0  0  0
 22 23  1  0  0  0
 23 24  1  0  0  0
 19 24  1  0  0  0
 22  1  1  0  0  0
  1  2  1  0  0  0
  2  3  2  0  0  0
  3  4  1  0  0  0
  4  5  2  0  0  0
  1  5  1  0  0  0
  4 25  1  0  0  0
 25 26  2  0  0  0
 26 27  1  0  0  0
 27 28  2  0  0  0
 28 29  1  0  0  0
 29 30  2  0  0  0
 25 30  1  0  0  0
  3  6  1  0  0  0
  6  7  2  0  0  0
  7  8  1  0  0  0
  8  9  2  0  0  0
  9 10  1  0  0  0
 10 11  2  0  0  0
  6 11  1  0  0  0
  9 12  1  0  0  0
 12 13  2  0  0  0
 13 14  1  0  0  0
 12 15  1  0  0  0
 15 16  1  0  0  0
  8 16  1  0  0  0
 14 17  1  0  0  0
M  END
> <minimizedAffinity>
-10.26943

$$$$
mol_44587235_11


 30 34  0  0  0  0  0  0  0  0999 V2000
   -4.1963   -1.1622    6.7791 N   0  0  0  0  0  0  0  0  0  0  0  0
   -3.8201   -0.5241    7.9270 C   0  0  0  0  0  0  0  0  0  0  0  0
   -2.7120   -1.1765    8.3928 C   0  0  0  0  0  0  0  0  0  0  0  0
   -2.4872   -2.2257    7.4555 C   0  0  0  0  0  0  0  0  0  0  0  0
   -3.3692   -2.1692    6.4411 N   0  0  0  0  0  0  0  0  0  0  0  0
   -1.9978   -0.7943    9.5889 C   0  0  0  0  0  0  0  0  0  0  0  0
   -1.9864   -1.6699   10.6852 C   0  0  0  0  0  0  0  0  0  0  0  0
   -1.3498   -1.2713   11.8472 C   0  0  0  0  0  0  0  0  0  0  0  0
   -0.7353   -0.0270   11.9078 C   0  0  0  0  0  0  0  0  0  0  0  0
   -0.7137    0.8533   10.8408 C   0  0  0  0  0  0  0  0  0  0  0  0
   -1.3537    0.4580    9.6651 C   0  0  0  0  0  0  0  0  0  0  0  0
   -0.1835    0.1363   13.2408 C   0  0  0  0  0  0  0  0  0  0  0  0
    0.4338    1.2081   13.6279 N   0  0  0  0  0  0  0  0  0  0  0  0
    0.8426    1.0802   14.9591 O   0  0  0  0  0  0  0  0  0  0  0  0
   -0.4541   -1.1055   14.0572 C   0  0  0  0  0  0  0  0  0  0  0  0
   -1.2450   -2.0356   13.1262 C   0  0  0  0  0  0  0  0  0  0  0  0
    1.2682    1.9411   15.1287 H   0  0  0  0  0  0  0  0  0  0  0  0
   -9.2265    0.4415    5.1810 C   0  0  0  0  0  0  0  0  0  0  0  0
   -7.8063   -0.0336    4.8675 C   0  0  0  0  0  0  0  0  0  0  0  0
   -6.7812    0.9869    5.3981 C   0  0  0  0  0  0  0  0  0  0  0  0
   -5.3538    0.4367    5.3994 C   0  0  0  0  0  0  0  0  0  0  0  0
   -5.3958   -0.7991    6.1596 N   0  0  0  0  0  0  0  0  0  0  0  0
   -6.1073   -1.8562    5.4663 C   0  0  0  0  0  0  0  0  0  0  0  0
   -7.5826   -1.4459    5.4451 C   0  0  0  0  0  0  0  0  0  0  0  0
   -1.4562   -3.2532    7.5605 C   0  0  0  0  0  0  0  0  0  0  0  0
   -0.1236   -2.9122    7.7756 C   0  0  0  0  0  0  0  0  0  0  0  0
    0.7789   -3.9375    8.0079 C   0  0  0  0  0  0  0  0  0  0  0  0
    0.4474   -5.2481    8.0283 N   0  0  0  0  0  0  0  0  0  0  0  0
   -0.8450   -5.5524    7.7912 C   0  0  0  0  0  0  0  0  0  0  0  0
   -1.8219   -4.6032    7.5527 C   0  0  0  0  0  0  0  0  0  0  0  0
 18 19  1  0  0  0
 19 20  1  0  0  0
 20 21  1  0  0  0
 21 22  1  0  0  0
 22 23  1  0  0  0
 23 24  1  0  0  0
 19 24  1  0  0  0
 22  1  1  0  0  0
  1  2  1  0  0  0
  2  3  2  0  0  0
  3  4  1  0  0  0
  4  5  2  0  0  0
  1  5  1  0  0  0
  4 25  1  0  0  0
 25 26  2  0  0  0
 26 27  1  0  0  0
 27 28  2  0  0  0
 28 29  1  0  0  0
 29 30  2  0  0  0
 25 30  1  0  0  0
  3  6  1  0  0  0
  6  7  2  0  0  0
  7  8  1  0  0  0
  8  9  2  0  0  0
  9 10  1  0  0  0
 10 11  2  0  0  0
  6 11  1  0  0  0
  9 12  1  0  0  0
 12 13  2  0  0  0
 13 14  1  0  0  0
 12 15  1  0  0  0
 15 16  1  0  0  0
  8 16  1  0  0  0
 14 17  1  0  0  0
M  END
> <minimizedAffinity>
-10.22405

$$$$
mol_60146017_12


 30 34  0  0  0  0  0  0  0  0999 V2000
   -4.1972   -1.2713    7.5110 N   0  0  0  0  0  0  0  0  0  0  0  0
   -3.2367   -2.1638    7.1274 C   0  0  0  0  0  0  0  0  0  0  0  0
   -2.3236   -2.2179    8.1442 C   0  0  0  0  0  0  0  0  0  0  0  0
   -2.8104   -1.2997    9.1189 C   0  0  0  0  0  0  0  0  0  0  0  0
   -3.9890   -0.7708    8.7432 N   0  0  0  0  0  0  0  0  0  0  0  0
   -1.1537   -3.0650    8.1296 C   0  0  0  0  0  0  0  0  0  0  0  0
    0.0463   -2.5795    8.6711 C   0  0  0  0  0  0  0  0  0  0  0  0
    1.1766   -3.3744    8.6004 C   0  0  0  0  0  0  0  0  0  0  0  0
    1.1053   -4.6276    8.0055 C   0  0  0  0  0  0  0  0  0  0  0  0
   -0.0646   -5.1431    7.4768 C   0  0  0  0  0  0  0  0  0  0  0  0
   -1.2090   -4.3471    7.5447 C   0  0  0  0  0  0  0  0  0  0  0  0
    2.4313   -5.2179    8.0425 C   0  0  0  0  0  0  0  0  0  0  0  0
    2.7058   -6.3805    7.5400 N   0  0  0  0  0  0  0  0  0  0  0  0
    4.0609   -6.6786    7.7152 O   0  0  0  0  0  0  0  0  0  0  0  0
    3.3877   -4.2732    8.7315 C   0  0  0  0  0  0  0  0  0  0  0  0
    2.5476   -3.0388    9.0890 C   0  0  0  0  0  0  0  0  0  0  0  0
    4.1380   -7.5513    7.2869 H   0  0  0  0  0  0  0  0  0  0  0  0
   -8.5915    0.4255    4.6405 C   0  0  0  0  0  0  0  0  0  0  0  0
   -7.1676   -0.1294    4.7121 C   0  0  0  0  0  0  0  0  0  0  0  0
   -6.2438    0.8819    5.4175 C   0  0  0  0  0  0  0  0  0  0  0  0
   -4.8932    0.2739    5.7999 C   0  0  0  0  0  0  0  0  0  0  0  0
   -5.1886   -0.9027    6.5969 N   0  0  0  0  0  0  0  0  0  0  0  0
   -5.7715   -1.9751    5.8128 C   0  0  0  0  0  0  0  0  0  0  0  0
   -7.1718   -1.5059    5.4076 C   0  0  0  0  0  0  0  0  0  0  0  0
   -2.1362   -0.9439   10.3634 C   0  0  0  0  0  0  0  0  0  0  0  0
   -1.4953    0.2838   10.5058 C   0  0  0  0  0  0  0  0  0  0  0  0
   -1.0003    0.6157   11.7565 C   0  0  0  0  0  0  0  0  0  0  0  0
   -1.0922   -0.1827   12.8439 N   0  0  0  0  0  0  0  0  0  0  0  0
   -1.6947   -1.3771   12.6721 C   0  0  0  0  0  0  0  0  0  0  0  0
   -2.2240   -1.7994   11.4665 C   0  0  0  0  0  0  0  0  0  0  0  0
 18 19  1  0  0  0
 19 20  1  0  0  0
 20 21  1  0  0  0
 21 22  1  0  0  0
 22 23  1  0  0  0
 23 24  1  0  0  0
 19 24  1  0  0  0
 22  1  1  0  0  0
  1  2  1  0  0  0
  2  3  2  0  0  0
  3  4  1  0  0  0
  4  5  2  0  0  0
  1  5  1  0  0  0
  4 25  1  0  0  0
 25 26  2  0  0  0
 26 27  1  0  0  0
 27 28  2  0  0  0
 28 29  1  0  0  0
 29 30  2  0  0  0
 25 30  1  0  0  0
  3  6  1  0  0  0
  6  7  2  0  0  0
  7  8  1  0  0  0
  8  9  2  0  0  0
  9 10  1  0  0  0
 10 11  2  0  0  0
  6 11  1  0  0  0
  9 12  1  0  0  0
 12 13  2  0  0  0
 13 14  1  0  0  0
 12 15  1  0  0  0
 15 16  1  0  0  0
  8 16  1  0  0  0
 14 17  1  0  0  0
M  END
> <minimizedAffinity>
-10.59725

$$$$
mol_60146017_12


 30 34  0  0  0  0  0  0  0  0999 V2000
   -0.1902   -1.9031    9.7694 N   0  0  0  0  0  0  0  0  0  0  0  0
   -1.3938   -1.3506    9.4342 C   0  0  0  0  0  0  0  0  0  0  0  0
   -1.7726   -1.9245    8.2520 C   0  0  0  0  0  0  0  0  0  0  0  0
   -0.7145   -2.8220    7.9283 C   0  0  0  0  0  0  0  0  0  0  0  0
    0.2202   -2.8414    8.8957 N   0  0  0  0  0  0  0  0  0  0  0  0
   -3.0066   -1.6155    7.5676 C   0  0  0  0  0  0  0  0  0  0  0  0
   -3.8980   -2.6563    7.2657 C   0  0  0  0  0  0  0  0  0  0  0  0
   -5.0498   -2.3604    6.5585 C   0  0  0  0  0  0  0  0  0  0  0  0
   -5.3048   -1.0523    6.1670 C   0  0  0  0  0  0  0  0  0  0  0  0
   -4.4559   -0.0005    6.4620 C   0  0  0  0  0  0  0  0  0  0  0  0
   -3.2920   -0.2912    7.1754 C   0  0  0  0  0  0  0  0  0  0  0  0
   -6.5508   -1.0418    5.4219 C   0  0  0  0  0  0  0  0  0  0  0  0
   -7.0542    0.0295    4.8940 N   0  0  0  0  0  0  0  0  0  0  0  0
   -8.2493   -0.2695    4.2323 O   0  0  0  0  0  0  0  0  0  0  0  0
   -7.1214   -2.4394    5.3686 C   0  0  0  0  0  0  0  0  0  0  0  0
   -6.1082   -3.3174    6.1168 C   0  0  0  0  0  0  0  0  0  0  0  0
   -8.5096    0.5987    3.8725 H   0  0  0  0  0  0  0  0  0  0  0  0
    3.2438   -0.4622   13.8389 C   0  0  0  0  0  0  0  0  0  0  0  0
    1.9242   -0.3115   13.0796 C   0  0  0  0  0  0  0  0  0  0  0  0
    2.2003    0.1106   11.6237 C   0  0  0  0  0  0  0  0  0  0  0  0
    0.9649   -0.0214   10.7313 C   0  0  0  0  0  0  0  0  0  0  0  0
    0.5113   -1.3936   10.8661 N   0  0  0  0  0  0  0  0  0  0  0  0
   -0.0523   -1.6684   12.1743 C   0  0  0  0  0  0  0  0  0  0  0  0
    1.1117   -1.6193   13.1682 C   0  0  0  0  0  0  0  0  0  0  0  0
   -0.6176   -3.6177    6.7087 C   0  0  0  0  0  0  0  0  0  0  0  0
   -1.1794   -3.1718    5.5154 C   0  0  0  0  0  0  0  0  0  0  0  0
   -0.9284   -3.9047    4.3667 C   0  0  0  0  0  0  0  0  0  0  0  0
   -0.1806   -5.0308    4.3350 N   0  0  0  0  0  0  0  0  0  0  0  0
    0.3301   -5.4550    5.5091 C   0  0  0  0  0  0  0  0  0  0  0  0
    0.1405   -4.7931    6.7082 C   0  0  0  0  0  0  0  0  0  0  0  0
 18 19  1  0  0  0
 19 20  1  0  0  0
 20 21  1  0  0  0
 21 22  1  0  0  0
 22 23  1  0  0  0
 23 24  1  0  0  0
 19 24  1  0  0  0
 22  1  1  0  0  0
  1  2  1  0  0  0
  2  3  2  0  0  0
  3  4  1  0  0  0
  4  5  2  0  0  0
  1  5  1  0  0  0
  4 25  1  0  0  0
 25 26  2  0  0  0
 26 27  1  0  0  0
 27 28  2  0  0  0
 28 29  1  0  0  0
 29 30  2  0  0  0
 25 30  1  0  0  0
  3  6  1  0  0  0
  6  7  2  0  0  0
  7  8  1  0  0  0
  8  9  2  0  0  0
  9 10  1  0  0  0
 10 11  2  0  0  0
  6 11  1  0  0  0
  9 12  1  0  0  0
 12 13  2  0  0  0
 13 14  1  0  0  0
 12 15  1  0  0  0
 15 16  1  0  0  0
  8 16  1  0  0  0
 14 17  1  0  0  0
M  END
> <minimizedAffinity>
-10.26943

$$$$
mol_60146017_12


 30 34  0  0  0  0  0  0  0  0999 V2000
   -4.1963   -1.1622    6.7791 N   0  0  0  0  0  0  0  0  0  0  0  0
   -3.8201   -0.5241    7.9270 C   0  0  0  0  0  0  0  0  0  0  0  0
   -2.7120   -1.1765    8.3928 C   0  0  0  0  0  0  0  0  0  0  0  0
   -2.4872   -2.2257    7.4555 C   0  0  0  0  0  0  0  0  0  0  0  0
   -3.3692   -2.1692    6.4411 N   0  0  0  0  0  0  0  0  0  0  0  0
   -1.9978   -0.7943    9.5889 C   0  0  0  0  0  0  0  0  0  0  0  0
   -1.9864   -1.6699   10.6852 C   0  0  0  0  0  0  0  0  0  0  0  0
   -1.3498   -1.2713   11.8472 C   0  0  0  0  0  0  0  0  0  0  0  0
   -0.7353   -0.0270   11.9078 C   0  0  0  0  0  0  0  0  0  0  0  0
   -0.7137    0.8533   10.8408 C   0  0  0  0  0  0  0  0  0  0  0  0
   -1.3537    0.4580    9.6651 C   0  0  0  0  0  0  0  0  0  0  0  0
   -0.1835    0.1363   13.2408 C   0  0  0  0  0  0  0  0  0  0  0  0
    0.4338    1.2081   13.6279 N   0  0  0  0  0  0  0  0  0  0  0  0
    0.8426    1.0802   14.9591 O   0  0  0  0  0  0  0  0  0  0  0  0
   -0.4541   -1.1055   14.0572 C   0  0  0  0  0  0  0  0  0  0  0  0
   -1.2450   -2.0356   13.1262 C   0  0  0  0  0  0  0  0  0  0  0  0
    1.2682    1.9411   15.1287 H   0  0  0  0  0  0  0  0  0  0  0  0
   -9.2265    0.4415    5.1810 C   0  0  0  0  0  0  0  0  0  0  0  0
   -7.8063   -0.0336    4.8675 C   0  0  0  0  0  0  0  0  0  0  0  0
   -6.7812    0.9869    5.3981 C   0  0  0  0  0  0  0  0  0  0  0  0
   -5.3538    0.4367    5.3994 C   0  0  0  0  0  0  0  0  0  0  0  0
   -5.3958   -0.7991    6.1596 N   0  0  0  0  0  0  0  0  0  0  0  0
   -6.1073   -1.8562    5.4663 C   0  0  0  0  0  0  0  0  0  0  0  0
   -7.5826   -1.4459    5.4451 C   0  0  0  0  0  0  0  0  0  0  0  0
   -1.4562   -3.2532    7.5605 C   0  0  0  0  0  0  0  0  0  0  0  0
   -0.1236   -2.9122    7.7756 C   0  0  0  0  0  0  0  0  0  0  0  0
    0.7789   -3.9375    8.0079 C   0  0  0  0  0  0  0  0  0  0  0  0
    0.4474   -5.2481    8.0283 N   0  0  0  0  0  0  0  0  0  0  0  0
   -0.8450   -5.5524    7.7912 C   0  0  0  0  0  0  0  0  0  0  0  0
   -1.8219   -4.6032    7.5527 C   0  0  0  0  0  0  0  0  0  0  0  0
 18 19  1  0  0  0
 19 20  1  0  0  0
 20 21  1  0  0  0
 21 22  1  0  0  0
 22 23  1  0  0  0
 23 24  1  0  0  0
 19 24  1  0  0  0
 22  1  1  0  0  0
  1  2  1  0  0  0
  2  3  2  0  0  0
  3  4  1  0  0  0
  4  5  2  0  0  0
  1  5  1  0  0  0
  4 25  1  0  0  0
 25 26  2  0  0  0
 26 27  1  0  0  0
 27 28  2  0  0  0
 28 29  1  0  0  0
 29 30  2  0  0  0
 25 30  1  0  0  0
  3  6  1  0  0  0
  6  7  2  0  0  0
  7  8  1  0  0  0
  8  9  2  0  0  0
  9 10  1  0  0  0
 10 11  2  0  0  0
  6 11  1  0  0  0
  9 12  1  0  0  0
 12 13  2  0  0  0
 13 14  1  0  0  0
 12 15  1  0  0  0
 15 16  1  0  0  0
  8 16  1  0  0  0
 14 17  1  0  0  0
M  END
> <minimizedAffinity>
-10.22405

$$$$
mol_11639637_13


 30 34  0  0  0  0  0  0  0  0999 V2000
   -4.1972   -1.2713    7.5110 N   0  0  0  0  0  0  0  0  0  0  0  0
   -3.2367   -2.1638    7.1274 C   0  0  0  0  0  0  0  0  0  0  0  0
   -2.3236   -2.2179    8.1442 C   0  0  0  0  0  0  0  0  0  0  0  0
   -2.8104   -1.2997    9.1189 C   0  0  0  0  0  0  0  0  0  0  0  0
   -3.9890   -0.7708    8.7432 N   0  0  0  0  0  0  0  0  0  0  0  0
   -1.1537   -3.0650    8.1296 C   0  0  0  0  0  0  0  0  0  0  0  0
    0.0463   -2.5795    8.6711 C   0  0  0  0  0  0  0  0  0  0  0  0
    1.1766   -3.3744    8.6004 C   0  0  0  0  0  0  0  0  0  0  0  0
    1.1053   -4.6276    8.0055 C   0  0  0  0  0  0  0  0  0  0  0  0
   -0.0646   -5.1431    7.4768 C   0  0  0  0  0  0  0  0  0  0  0  0
   -1.2090   -4.3471    7.5447 C   0  0  0  0  0  0  0  0  0  0  0  0
    2.4313   -5.2179    8.0425 C   0  0  0  0  0  0  0  0  0  0  0  0
    2.7058   -6.3805    7.5400 N   0  0  0  0  0  0  0  0  0  0  0  0
    4.0609   -6.6786    7.7152 O   0  0  0  0  0  0  0  0  0  0  0  0
    3.3877   -4.2732    8.7315 C   0  0  0  0  0  0  0  0  0  0  0  0
    2.5476   -3.0388    9.0890 C   0  0  0  0  0  0  0  0  0  0  0  0
    4.1380   -7.5513    7.2869 H   0  0  0  0  0  0  0  0  0  0  0  0
   -8.5915    0.4255    4.6405 C   0  0  0  0  0  0  0  0  0  0  0  0
   -7.1676   -0.1294    4.7121 C   0  0  0  0  0  0  0  0  0  0  0  0
   -6.2438    0.8819    5.4175 C   0  0  0  0  0  0  0  0  0  0  0  0
   -4.8932    0.2739    5.7999 C   0  0  0  0  0  0  0  0  0  0  0  0
   -5.1886   -0.9027    6.5969 N   0  0  0  0  0  0  0  0  0  0  0  0
   -5.7715   -1.9751    5.8128 C   0  0  0  0  0  0  0  0  0  0  0  0
   -7.1718   -1.5059    5.4076 C   0  0  0  0  0  0  0  0  0  0  0  0
   -2.1362   -0.9439   10.3634 C   0  0  0  0  0  0  0  0  0  0  0  0
   -1.4953    0.2838   10.5058 C   0  0  0  0  0  0  0  0  0  0  0  0
   -1.0003    0.6157   11.7565 C   0  0  0  0  0  0  0  0  0  0  0  0
   -1.0922   -0.1827   12.8439 N   0  0  0  0  0  0  0  0  0  0  0  0
   -1.6947   -1.3771   12.6721 C   0  0  0  0  0  0  0  0  0  0  0  0
   -2.2240   -1.7994   11.4665 C   0  0  0  0  0  0  0  0  0  0  0  0
 18 19  1  0  0  0
 19 20  1  0  0  0
 20 21  1  0  0  0
 21 22  1  0  0  0
 22 23  1  0  0  0
 23 24  1  0  0  0
 19 24  1  0  0  0
 22  1  1  0  0  0
  1  2  1  0  0  0
  2  3  2  0  0  0
  3  4  1  0  0  0
  4  5  2  0  0  0
  1  5  1  0  0  0
  4 25  1  0  0  0
 25 26  2  0  0  0
 26 27  1  0  0  0
 27 28  2  0  0  0
 28 29  1  0  0  0
 29 30  2  0  0  0
 25 30  1  0  0  0
  3  6  1  0  0  0
  6  7  2  0  0  0
  7  8  1  0  0  0
  8  9  2  0  0  0
  9 10  1  0  0  0
 10 11  2  0  0  0
  6 11  1  0  0  0
  9 12  1  0  0  0
 12 13  2  0  0  0
 13 14  1  0  0  0
 12 15  1  0  0  0
 15 16  1  0  0  0
  8 16  1  0  0  0
 14 17  1  0  0  0
M  END
> <minimizedAffinity>
-10.59725

$$$$
mol_11639637_13


 30 34  0  0  0  0  0  0  0  0999 V2000
   -0.1902   -1.9031    9.7694 N   0  0  0  0  0  0  0  0  0  0  0  0
   -1.3938   -1.3506    9.4342 C   0  0  0  0  0  0  0  0  0  0  0  0
   -1.7726   -1.9245    8.2520 C   0  0  0  0  0  0  0  0  0  0  0  0
   -0.7145   -2.8220    7.9283 C   0  0  0  0  0  0  0  0  0  0  0  0
    0.2202   -2.8414    8.8957 N   0  0  0  0  0  0  0  0  0  0  0  0
   -3.0066   -1.6155    7.5676 C   0  0  0  0  0  0  0  0  0  0  0  0
   -3.8980   -2.6563    7.2657 C   0  0  0  0  0  0  0  0  0  0  0  0
   -5.0498   -2.3604    6.5585 C   0  0  0  0  0  0  0  0  0  0  0  0
   -5.3048   -1.0523    6.1670 C   0  0  0  0  0  0  0  0  0  0  0  0
   -4.4559   -0.0005    6.4620 C   0  0  0  0  0  0  0  0  0  0  0  0
   -3.2920   -0.2912    7.1754 C   0  0  0  0  0  0  0  0  0  0  0  0
   -6.5508   -1.0418    5.4219 C   0  0  0  0  0  0  0  0  0  0  0  0
   -7.0542    0.0295    4.8940 N   0  0  0  0  0  0  0  0  0  0  0  0
   -8.2493   -0.2695    4.2323 O   0  0  0  0  0  0  0  0  0  0  0  0
   -7.1214   -2.4394    5.3686 C   0  0  0  0  0  0  0  0  0  0  0  0
   -6.1082   -3.3174    6.1168 C   0  0  0  0  0  0  0  0  0  0  0  0
   -8.5096    0.5987    3.8725 H   0  0  0  0  0  0  0  0  0  0  0  0
    3.2438   -0.4622   13.8389 C   0  0  0  0  0  0  0  0  0  0  0  0
    1.9242   -0.3115   13.0796 C   0  0  0  0  0  0  0  0  0  0  0  0
    2.2003    0.1106   11.6237 C   0  0  0  0  0  0  0  0  0  0  0  0
    0.9649   -0.0214   10.7313 C   0  0  0  0  0  0  0  0  0  0  0  0
    0.5113   -1.3936   10.8661 N   0  0  0  0  0  0  0  0  0  0  0  0
   -0.0523   -1.6684   12.1743 C   0  0  0  0  0  0  0  0  0  0  0  0
    1.1117   -1.6193   13.1682 C   0  0  0  0  0  0  0  0  0  0  0  0
   -0.6176   -3.6177    6.7087 C   0  0  0  0  0  0  0  0  0  0  0  0
   -1.1794   -3.1718    5.5154 C   0  0  0  0  0  0  0  0  0  0  0  0
   -0.9284   -3.9047    4.3667 C   0  0  0  0  0  0  0  0  0  0  0  0
   -0.1806   -5.0308    4.3350 N   0  0  0  0  0  0  0  0  0  0  0  0
    0.3301   -5.4550    5.5091 C   0  0  0  0  0  0  0  0  0  0  0  0
    0.1405   -4.7931    6.7082 C   0  0  0  0  0  0  0  0  0  0  0  0
 18 19  1  0  0  0
 19 20  1  0  0  0
 20 21  1  0  0  0
 21 22  1  0  0  0
 22 23  1  0  0  0
 23 24  1  0  0  0
 19 24  1  0  0  0
 22  1  1  0  0  0
  1  2  1  0  0  0
  2  3  2  0  0  0
  3  4  1  0  0  0
  4  5  2  0  0  0
  1  5  1  0  0  0
  4 25  1  0  0  0
 25 26  2  0  0  0
 26 27  1  0  0  0
 27 28  2  0  0  0
 28 29  1  0  0  0
 29 30  2  0  0  0
 25 30  1  0  0  0
  3  6  1  0  0  0
  6  7  2  0  0  0
  7  8  1  0  0  0
  8  9  2  0  0  0
  9 10  1  0  0  0
 10 11  2  0  0  0
  6 11  1  0  0  0
  9 12  1  0  0  0
 12 13  2  0  0  0
 13 14  1  0  0  0
 12 15  1  0  0  0
 15 16  1  0  0  0
  8 16  1  0  0  0
 14 17  1  0  0  0
M  END
> <minimizedAffinity>
-10.26943

$$$$
mol_11639637_13


 30 34  0  0  0  0  0  0  0  0999 V2000
   -4.1963   -1.1622    6.7791 N   0  0  0  0  0  0  0  0  0  0  0  0
   -3.8201   -0.5241    7.9270 C   0  0  0  0  0  0  0  0  0  0  0  0
   -2.7120   -1.1765    8.3928 C   0  0  0  0  0  0  0  0  0  0  0  0
   -2.4872   -2.2257    7.4555 C   0  0  0  0  0  0  0  0  0  0  0  0
   -3.3692   -2.1692    6.4411 N   0  0  0  0  0  0  0  0  0  0  0  0
   -1.9978   -0.7943    9.5889 C   0  0  0  0  0  0  0  0  0  0  0  0
   -1.9864   -1.6699   10.6852 C   0  0  0  0  0  0  0  0  0  0  0  0
   -1.3498   -1.2713   11.8472 C   0  0  0  0  0  0  0  0  0  0  0  0
   -0.7353   -0.0270   11.9078 C   0  0  0  0  0  0  0  0  0  0  0  0
   -0.7137    0.8533   10.8408 C   0  0  0  0  0  0  0  0  0  0  0  0
   -1.3537    0.4580    9.6651 C   0  0  0  0  0  0  0  0  0  0  0  0
   -0.1835    0.1363   13.2408 C   0  0  0  0  0  0  0  0  0  0  0  0
    0.4338    1.2081   13.6279 N   0  0  0  0  0  0  0  0  0  0  0  0
    0.8426    1.0802   14.9591 O   0  0  0  0  0  0  0  0  0  0  0  0
   -0.4541   -1.1055   14.0572 C   0  0  0  0  0  0  0  0  0  0  0  0
   -1.2450   -2.0356   13.1262 C   0  0  0  0  0  0  0  0  0  0  0  0
    1.2682    1.9411   15.1287 H   0  0  0  0  0  0  0  0  0  0  0  0
   -9.2265    0.4415    5.1810 C   0  0  0  0  0  0  0  0  0  0  0  0
   -7.8063   -0.0336    4.8675 C   0  0  0  0  0  0  0  0  0  0  0  0
   -6.7812    0.9869    5.3981 C   0  0  0  0  0  0  0  0  0  0  0  0
   -5.3538    0.4367    5.3994 C   0  0  0  0  0  0  0  0  0  0  0  0
   -5.3958   -0.7991    6.1596 N   0  0  0  0  0  0  0  0  0  0  0  0
   -6.1073   -1.8562    5.4663 C   0  0  0  0  0  0  0  0  0  0  0  0
   -7.5826   -1.4459    5.4451 C   0  0  0  0  0  0  0  0  0  0  0  0
   -1.4562   -3.2532    7.5605 C   0  0  0  0  0  0  0  0  0  0  0  0
   -0.1236   -2.9122    7.7756 C   0  0  0  0  0  0  0  0  0  0  0  0
    0.7789   -3.9375    8.0079 C   0  0  0  0  0  0  0  0  0  0  0  0
    0.4474   -5.2481    8.0283 N   0  0  0  0  0  0  0  0  0  0  0  0
   -0.8450   -5.5524    7.7912 C   0  0  0  0  0  0  0  0  0  0  0  0
   -1.8219   -4.6032    7.5527 C   0  0  0  0  0  0  0  0  0  0  0  0
 18 19  1  0  0  0
 19 20  1  0  0  0
 20 21  1  0  0  0
 21 22  1  0  0  0
 22 23  1  0  0  0
 23 24  1  0  0  0
 19 24  1  0  0  0
 22  1  1  0  0  0
  1  2  1  0  0  0
  2  3  2  0  0  0
  3  4  1  0  0  0
  4  5  2  0  0  0
  1  5  1  0  0  0
  4 25  1  0  0  0
 25 26  2  0  0  0
 26 27  1  0  0  0
 27 28  2  0  0  0
 28 29  1  0  0  0
 29 30  2  0  0  0
 25 30  1  0  0  0
  3  6  1  0  0  0
  6  7  2  0  0  0
  7  8  1  0  0  0
  8  9  2  0  0  0
  9 10  1  0  0  0
 10 11  2  0  0  0
  6 11  1  0  0  0
  9 12  1  0  0  0
 12 13  2  0  0  0
 13 14  1  0  0  0
 12 15  1  0  0  0
 15 16  1  0  0  0
  8 16  1  0  0  0
 14 17  1  0  0  0
M  END
> <minimizedAffinity>
-10.22405

$$$$
mol_74627710_14


 30 34  0  0  0  0  0  0  0  0999 V2000
   -4.1972   -1.2713    7.5110 N   0  0  0  0  0  0  0  0  0  0  0  0
   -3.2367   -2.1638    7.1274 C   0  0  0  0  0  0  0  0  0  0  0  0
   -2.3236   -2.2179    8.1442 C   0  0  0  0  0  0  0  0  0  0  0  0
   -2.8104   -1.2997    9.1189 C   0  0  0  0  0  0  0  0  0  0  0  0
   -3.9890   -0.7708    8.7432 N   0  0  0  0  0  0  0  0  0  0  0  0
   -1.1537   -3.0650    8.1296 C   0  0  0  0  0  0  0  0  0  0  0  0
    0.0463   -2.5795    8.6711 C   0  0  0  0  0  0  0  0  0  0  0  0
    1.1766   -3.3744    8.6004 C   0  0  0  0  0  0  0  0  0  0  0  0
    1.1053   -4.6276    8.0055 C   0  0  0  0  0  0  0  0  0  0  0  0
   -0.0646   -5.1431    7.4768 C   0  0  0  0  0  0  0  0  0  0  0  0
   -1.2090   -4.3471    7.5447 C   0  0  0  0  0  0  0  0  0  0  0  0
    2.4313   -5.2179    8.0425 C   0  0  0  0  0  0  0  0  0  0  0  0
    2.7058   -6.3805    7.5400 N   0  0  0  0  0  0  0  0  0  0  0  0
    4.0609   -6.6786    7.7152 O   0  0  0  0  0  0  0  0  0  0  0  0
    3.3877   -4.2732    8.7315 C   0  0  0  0  0  0  0  0  0  0  0  0
    2.5476   -3.0388    9.0890 C   0  0  0  0  0  0  0  0  0  0  0  0
    4.1380   -7.5513    7.2869 H   0  0  0  0  0  0  0  0  0  0  0  0
   -8.5915    0.4255    4.6405 C   0  0  0  0  0  0  0  0  0  0  0  0
   -7.1676   -0.1294    4.7121 C   0  0  0  0  0  0  0  0  0  0  0  0
   -6.2438    0.8819    5.4175 C   0  0  0  0  0  0  0  0  0  0  0  0
   -4.8932    0.2739    5.7999 C   0  0  0  0  0  0  0  0  0  0  0  0
   -5.1886   -0.9027    6.5969 N   0  0  0  0  0  0  0  0  0  0  0  0
   -5.7715   -1.9751    5.8128 C   0  0  0  0  0  0  0  0  0  0  0  0
   -7.1718   -1.5059    5.4076 C   0  0  0  0  0  0  0  0  0  0  0  0
   -2.1362   -0.9439   10.3634 C   0  0  0  0  0  0  0  0  0  0  0  0
   -1.4953    0.2838   10.5058 C   0  0  0  0  0  0  0  0  0  0  0  0
   -1.0003    0.6157   11.7565 C   0  0  0  0  0  0  0  0  0  0  0  0
   -1.0922   -0.1827   12.8439 N   0  0  0  0  0  0  0  0  0  0  0  0
   -1.6947   -1.3771   12.6721 C   0  0  0  0  0  0  0  0  0  0  0  0
   -2.2240   -1.7994   11.4665 C   0  0  0  0  0  0  0  0  0  0  0  0
 18 19  1  0  0  0
 19 20  1  0  0  0
 20 21  1  0  0  0
 21 22  1  0  0  0
 22 23  1  0  0  0
 23 24  1  0  0  0
 19 24  1  0  0  0
 22  1  1  0  0  0
  1  2  1  0  0  0
  2  3  2  0  0  0
  3  4  1  0  0  0
  4  5  2  0  0  0
  1  5  1  0  0  0
  4 25  1  0  0  0
 25 26  2  0  0  0
 26 27  1  0  0  0
 27 28  2  0  0  0
 28 29  1  0  0  0
 29 30  2  0  0  0
 25 30  1  0  0  0
  3  6  1  0  0  0
  6  7  2  0  0  0
  7  8  1  0  0  0
  8  9  2  0  0  0
  9 10  1  0  0  0
 10 11  2  0  0  0
  6 11  1  0  0  0
  9 12  1  0  0  0
 12 13  2  0  0  0
 13 14  1  0  0  0
 12 15  1  0  0  0
 15 16  1  0  0  0
  8 16  1  0  0  0
 14 17  1  0  0  0
M  END
> <minimizedAffinity>
-10.59725

$$$$
mol_74627710_14


 30 34  0  0  0  0  0  0  0  0999 V2000
   -0.1902   -1.9031    9.7694 N   0  0  0  0  0  0  0  0  0  0  0  0
   -1.3938   -1.3506    9.4342 C   0  0  0  0  0  0  0  0  0  0  0  0
   -1.7726   -1.9245    8.2520 C   0  0  0  0  0  0  0  0  0  0  0  0
   -0.7145   -2.8220    7.9283 C   0  0  0  0  0  0  0  0  0  0  0  0
    0.2202   -2.8414    8.8957 N   0  0  0  0  0  0  0  0  0  0  0  0
   -3.0066   -1.6155    7.5676 C   0  0  0  0  0  0  0  0  0  0  0  0
   -3.8980   -2.6563    7.2657 C   0  0  0  0  0  0  0  0  0  0  0  0
   -5.0498   -2.3604    6.5585 C   0  0  0  0  0  0  0  0  0  0  0  0
   -5.3048   -1.0523    6.1670 C   0  0  0  0  0  0  0  0  0  0  0  0
   -4.4559   -0.0005    6.4620 C   0  0  0  0  0  0  0  0  0  0  0  0
   -3.2920   -0.2912    7.1754 C   0  0  0  0  0  0  0  0  0  0  0  0
   -6.5508   -1.0418    5.4219 C   0  0  0  0  0  0  0  0  0  0  0  0
   -7.0542    0.0295    4.8940 N   0  0  0  0  0  0  0  0  0  0  0  0
   -8.2493   -0.2695    4.2323 O   0  0  0  0  0  0  0  0  0  0  0  0
   -7.1214   -2.4394    5.3686 C   0  0  0  0  0  0  0  0  0  0  0  0
   -6.1082   -3.3174    6.1168 C   0  0  0  0  0  0  0  0  0  0  0  0
   -8.5096    0.5987    3.8725 H   0  0  0  0  0  0  0  0  0  0  0  0
    3.2438   -0.4622   13.8389 C   0  0  0  0  0  0  0  0  0  0  0  0
    1.9242   -0.3115   13.0796 C   0  0  0  0  0  0  0  0  0  0  0  0
    2.2003    0.1106   11.6237 C   0  0  0  0  0  0  0  0  0  0  0  0
    0.9649   -0.0214   10.7313 C   0  0  0  0  0  0  0  0  0  0  0  0
    0.5113   -1.3936   10.8661 N   0  0  0  0  0  0  0  0  0  0  0  0
   -0.0523   -1.6684   12.1743 C   0  0  0  0  0  0  0  0  0  0  0  0
    1.1117   -1.6193   13.1682 C   0  0  0  0  0  0  0  0  0  0  0  0
   -0.6176   -3.6177    6.7087 C   0  0  0  0  0  0  0  0  0  0  0  0
   -1.1794   -3.1718    5.5154 C   0  0  0  0  0  0  0  0  0  0  0  0
   -0.9284   -3.9047    4.3667 C   0  0  0  0  0  0  0  0  0  0  0  0
   -0.1806   -5.0308    4.3350 N   0  0  0  0  0  0  0  0  0  0  0  0
    0.3301   -5.4550    5.5091 C   0  0  0  0  0  0  0  0  0  0  0  0
    0.1405   -4.7931    6.7082 C   0  0  0  0  0  0  0  0  0  0  0  0
 18 19  1  0  0  0
 19 20  1  0  0  0
 20 21  1  0  0  0
 21 22  1  0  0  0
 22 23  1  0  0  0
 23 24  1  0  0  0
 19 24  1  0  0  0
 22  1  1  0  0  0
  1  2  1  0  0  0
  2  3  2  0  0  0
  3  4  1  0  0  0
  4  5  2  0  0  0
  1  5  1  0  0  0
  4 25  1  0  0  0
 25 26  2  0  0  0
 26 27  1  0  0  0
 27 28  2  0  0  0
 28 29  1  0  0  0
 29 30  2  0  0  0
 25 30  1  0  0  0
  3  6  1  0  0  0
  6  7  2  0  0  0
  7  8  1  0  0  0
  8  9  2  0  0  0
  9 10  1  0  0  0
 10 11  2  0  0  0
  6 11  1  0  0  0
  9 12  1  0  0  0
 12 13  2  0  0  0
 13 14  1  0  0  0
 12 15  1  0  0  0
 15 16  1  0  0  0
  8 16  1  0  0  0
 14 17  1  0  0  0
M  END
> <minimizedAffinity>
-10.26943

$$$$
mol_74627710_14


 30 34  0  0  0  0  0  0  0  0999 V2000
   -4.1963   -1.1622    6.7791 N   0  0  0  0  0  0  0  0  0  0  0  0
   -3.8201   -0.5241    7.9270 C   0  0  0  0  0  0  0  0  0  0  0  0
   -2.7120   -1.1765    8.3928 C   0  0  0  0  0  0  0  0  0  0  0  0
   -2.4872   -2.2257    7.4555 C   0  0  0  0  0  0  0  0  0  0  0  0
   -3.3692   -2.1692    6.4411 N   0  0  0  0  0  0  0  0  0  0  0  0
   -1.9978   -0.7943    9.5889 C   0  0  0  0  0  0  0  0  0  0  0  0
   -1.9864   -1.6699   10.6852 C   0  0  0  0  0  0  0  0  0  0  0  0
   -1.3498   -1.2713   11.8472 C   0  0  0  0  0  0  0  0  0  0  0  0
   -0.7353   -0.0270   11.9078 C   0  0  0  0  0  0  0  0  0  0  0  0
   -0.7137    0.8533   10.8408 C   0  0  0  0  0  0  0  0  0  0  0  0
   -1.3537    0.4580    9.6651 C   0  0  0  0  0  0  0  0  0  0  0  0
   -0.1835    0.1363   13.2408 C   0  0  0  0  0  0  0  0  0  0  0  0
    0.4338    1.2081   13.6279 N   0  0  0  0  0  0  0  0  0  0  0  0
    0.8426    1.0802   14.9591 O   0  0  0  0  0  0  0  0  0  0  0  0
   -0.4541   -1.1055   14.0572 C   0  0  0  0  0  0  0  0  0  0  0  0
   -1.2450   -2.0356   13.1262 C   0  0  0  0  0  0  0  0  0  0  0  0
    1.2682    1.9411   15.1287 H   0  0  0  0  0  0  0  0  0  0  0  0
   -9.2265    0.4415    5.1810 C   0  0  0  0  0  0  0  0  0  0  0  0
   -7.8063   -0.0336    4.8675 C   0  0  0  0  0  0  0  0  0  0  0  0
   -6.7812    0.9869    5.3981 C   0  0  0  0  0  0  0  0  0  0  0  0
   -5.3538    0.4367    5.3994 C   0  0  0  0  0  0  0  0  0  0  0  0
   -5.3958   -0.7991    6.1596 N   0  0  0  0  0  0  0  0  0  0  0  0
   -6.1073   -1.8562    5.4663 C   0  0  0  0  0  0  0  0  0  0  0  0
   -7.5826   -1.4459    5.4451 C   0  0  0  0  0  0  0  0  0  0  0  0
   -1.4562   -3.2532    7.5605 C   0  0  0  0  0  0  0  0  0  0  0  0
   -0.1236   -2.9122    7.7756 C   0  0  0  0  0  0  0  0  0  0  0  0
    0.7789   -3.9375    8.0079 C   0  0  0  0  0  0  0  0  0  0  0  0
    0.4474   -5.2481    8.0283 N   0  0  0  0  0  0  0  0  0  0  0  0
   -0.8450   -5.5524    7.7912 C   0  0  0  0  0  0  0  0  0  0  0  0
   -1.8219   -4.6032    7.5527 C   0  0  0  0  0  0  0  0  0  0  0  0
 18 19  1  0  0  0
 19 20  1  0  0  0
 20 21  1  0  0  0
 21 22  1  0  0  0
 22 23  1  0  0  0
 23 24  1  0  0  0
 19 24  1  0  0  0
 22  1  1  0  0  0
  1  2  1  0  0  0
  2  3  2  0  0  0
  3  4  1  0  0  0
  4  5  2  0  0  0
  1  5  1  0  0  0
  4 25  1  0  0  0
 25 26  2  0  0  0
 26 27  1  0  0  0
 27 28  2  0  0  0
 28 29  1  0  0  0
 29 30  2  0  0  0
 25 30  1  0  0  0
  3  6  1  0  0  0
  6  7  2  0  0  0
  7  8  1  0  0  0
  8  9  2  0  0  0
  9 10  1  0  0  0
 10 11  2  0  0  0
  6 11  1  0  0  0
  9 12  1  0  0  0
 12 13  2  0  0  0
 13 14  1  0  0  0
 12 15  1  0  0  0
 15 16  1  0  0  0
  8 16  1  0  0  0
 14 17  1  0  0  0
M  END
> <minimizedAffinity>
-10.22405

$$$$
mol_87623644_15


 30 34  0  0  0  0  0  0  0  0999 V2000
   -4.1972   -1.2713    7.5110 N   0  0  0  0  0  0  0  0  0  0  0  0
   -3.2367   -2.1638    7.1274 C   0  0  0  0  0  0  0  0  0  0  0  0
   -2.3236   -2.2179    8.1442 C   0  0  0  0  0  0  0  0  0  0  0  0
   -2.8104   -1.2997    9.1189 C   0  0  0  0  0  0  0  0  0  0  0  0
   -3.9890   -0.7708    8.7432 N   0  0  0  0  0  0  0  0  0  0  0  0
   -1.1537   -3.0650    8.1296 C   0  0  0  0  0  0  0  0  0  0  0  0
    0.0463   -2.5795    8.6711 C   0  0  0  0  0  0  0  0  0  0  0  0
    1.1766   -3.3744    8.6004 C   0  0  0  0  0  0  0  0  0  0  0  0
    1.1053   -4.6276    8.0055 C   0  0  0  0  0  0  0  0  0  0  0  0
   -0.0646   -5.1431    7.4768 C   0  0  0  0  0  0  0  0  0  0  0  0
   -1.2090   -4.3471    7.5447 C   0  0  0  0  0  0  0  0  0  0  0  0
    2.4313   -5.2179    8.0425 C   0  0  0  0  0  0  0  0  0  0  0  0
    2.7058   -6.3805    7.5400 N   0  0  0  0  0  0  0  0  0  0  0  0
    4.0609   -6.6786    7.7152 O   0  0  0  0  0  0  0  0  0  0  0  0
    3.3877   -4.2732    8.7315 C   0  0  0  0  0  0  0  0  0  0  0  0
    2.5476   -3.0388    9.0890 C   0  0  0  0  0  0  0  0  0  0  0  0
    4.1380   -7.5513    7.2869 H   0  0  0  0  0  0  0  0  0  0  0  0
   -8.5915    0.4255    4.6405 C   0  0  0  0  0  0  0  0  0  0  0  0
   -7.1676   -0.1294    4.7121 C   0  0  0  0  0  0  0  0  0  0  0  0
   -6.2438    0.8819    5.4175 C   0  0  0  0  0  0  0  0  0  0  0  0
   -4.8932    0.2739    5.7999 C   0  0  0  0  0  0  0  0  0  0  0  0
   -5.1886   -0.9027    6.5969 N   0  0  0  0  0  0  0  0  0  0  0  0
   -5.7715   -1.9751    5.8128 C   0  0  0  0  0  0  0  0  0  0  0  0
   -7.1718   -1.5059    5.4076 C   0  0  0  0  0  0  0  0  0  0  0  0
   -2.1362   -0.9439   10.3634 C   0  0  0  0  0  0  0  0  0  0  0  0
   -1.4953    0.2838   10.5058 C   0  0  0  0  0  0  0  0  0  0  0  0
   -1.0003    0.6157   11.7565 C   0  0  0  0  0  0  0  0  0  0  0  0
   -1.0922   -0.1827   12.8439 N   0  0  0  0  0  0  0  0  0  0  0  0
   -1.6947   -1.3771   12.6721 C   0  0  0  0  0  0  0  0  0  0  0  0
   -2.2240   -1.7994   11.4665 C   0  0  0  0  0  0  0  0  0  0  0  0
 18 19  1  0  0  0
 19 20  1  0  0  0
 20 21  1  0  0  0
 21 22  1  0  0  0
 22 23  1  0  0  0
 23 24  1  0  0  0
 19 24  1  0  0  0
 22  1  1  0  0  0
  1  2  1  0  0  0
  2  3  2  0  0  0
  3  4  1  0  0  0
  4  5  2  0  0  0
  1  5  1  0  0  0
  4 25  1  0  0  0
 25 26  2  0  0  0
 26 27  1  0  0  0
 27 28  2  0  0  0
 28 29  1  0  0  0
 29 30  2  0  0  0
 25 30  1  0  0  0
  3  6  1  0  0  0
  6  7  2  0  0  0
  7  8  1  0  0  0
  8  9  2  0  0  0
  9 10  1  0  0  0
 10 11  2  0  0  0
  6 11  1  0  0  0
  9 12  1  0  0  0
 12 13  2  0  0  0
 13 14  1  0  0  0
 12 15  1  0  0  0
 15 16  1  0  0  0
  8 16  1  0  0  0
 14 17  1  0  0  0
M  END
> <minimizedAffinity>
-10.59725

$$$$
mol_87623644_15


 30 34  0  0  0  0  0  0  0  0999 V2000
   -0.1902   -1.9031    9.7694 N   0  0  0  0  0  0  0  0  0  0  0  0
   -1.3938   -1.3506    9.4342 C   0  0  0  0  0  0  0  0  0  0  0  0
   -1.7726   -1.9245    8.2520 C   0  0  0  0  0  0  0  0  0  0  0  0
   -0.7145   -2.8220    7.9283 C   0  0  0  0  0  0  0  0  0  0  0  0
    0.2202   -2.8414    8.8957 N   0  0  0  0  0  0  0  0  0  0  0  0
   -3.0066   -1.6155    7.5676 C   0  0  0  0  0  0  0  0  0  0  0  0
   -3.8980   -2.6563    7.2657 C   0  0  0  0  0  0  0  0  0  0  0  0
   -5.0498   -2.3604    6.5585 C   0  0  0  0  0  0  0  0  0  0  0  0
   -5.3048   -1.0523    6.1670 C   0  0  0  0  0  0  0  0  0  0  0  0
   -4.4559   -0.0005    6.4620 C   0  0  0  0  0  0  0  0  0  0  0  0
   -3.2920   -0.2912    7.1754 C   0  0  0  0  0  0  0  0  0  0  0  0
   -6.5508   -1.0418    5.4219 C   0  0  0  0  0  0  0  0  0  0  0  0
   -7.0542    0.0295    4.8940 N   0  0  0  0  0  0  0  0  0  0  0  0
   -8.2493   -0.2695    4.2323 O   0  0  0  0  0  0  0  0  0  0  0  0
   -7.1214   -2.4394    5.3686 C   0  0  0  0  0  0  0  0  0  0  0  0
   -6.1082   -3.3174    6.1168 C   0  0  0  0  0  0  0  0  0  0  0  0
   -8.5096    0.5987    3.8725 H   0  0  0  0  0  0  0  0  0  0  0  0
    3.2438   -0.4622   13.8389 C   0  0  0  0  0  0  0  0  0  0  0  0
    1.9242   -0.3115   13.0796 C   0  0  0  0  0  0  0  0  0  0  0  0
    2.2003    0.1106   11.6237 C   0  0  0  0  0  0  0  0  0  0  0  0
    0.9649   -0.0214   10.7313 C   0  0  0  0  0  0  0  0  0  0  0  0
    0.5113   -1.3936   10.8661 N   0  0  0  0  0  0  0  0  0  0  0  0
   -0.0523   -1.6684   12.1743 C   0  0  0  0  0  0  0  0  0  0  0  0
    1.1117   -1.6193   13.1682 C   0  0  0  0  0  0  0  0  0  0  0  0
   -0.6176   -3.6177    6.7087 C   0  0  0  0  0  0  0  0  0  0  0  0
   -1.1794   -3.1718    5.5154 C   0  0  0  0  0  0  0  0  0  0  0  0
   -0.9284   -3.9047    4.3667 C   0  0  0  0  0  0  0  0  0  0  0  0
   -0.1806   -5.0308    4.3350 N   0  0  0  0  0  0  0  0  0  0  0  0
    0.3301   -5.4550    5.5091 C   0  0  0  0  0  0  0  0  0  0  0  0
    0.1405   -4.7931    6.7082 C   0  0  0  0  0  0  0  0  0  0  0  0
 18 19  1  0  0  0
 19 20  1  0  0  0
 20 21  1  0  0  0
 21 22  1  0  0  0
 22 23  1  0  0  0
 23 24  1  0  0  0
 19 24  1  0  0  0
 22  1  1  0  0  0
  1  2  1  0  0  0
  2  3  2  0  0  0
  3  4  1  0  0  0
  4  5  2  0  0  0
  1  5  1  0  0  0
  4 25  1  0  0  0
 25 26  2  0  0  0
 26 27  1  0  0  0
 27 28  2  0  0  0
 28 29  1  0  0  0
 29 30  2  0  0  0
 25 30  1  0  0  0
  3  6  1  0  0  0
  6  7  2  0  0  0
  7  8  1  0  0  0
  8  9  2  0  0  0
  9 10  1  0  0  0
 10 11  2  0  0  0
  6 11  1  0  0  0
  9 12  1  0  0  0
 12 13  2  0  0  0
 13 14  1  0  0  0
 12 15  1  0  0  0
 15 16  1  0  0  0
  8 16  1  0  0  0
 14 17  1  0  0  0
M  END
> <minimizedAffinity>
-10.26943

$$$$
mol_87623644_15


 30 34  0  0  0  0  0  0  0  0999 V2000
   -4.1963   -1.1622    6.7791 N   0  0  0  0  0  0  0  0  0  0  0  0
   -3.8201   -0.5241    7.9270 C   0  0  0  0  0  0  0  0  0  0  0  0
   -2.7120   -1.1765    8.3928 C   0  0  0  0  0  0  0  0  0  0  0  0
   -2.4872   -2.2257    7.4555 C   0  0  0  0  0  0  0  0  0  0  0  0
   -3.3692   -2.1692    6.4411 N   0  0  0  0  0  0  0  0  0  0  0  0
   -1.9978   -0.7943    9.5889 C   0  0  0  0  0  0  0  0  0  0  0  0
   -1.9864   -1.6699   10.6852 C   0  0  0  0  0  0  0  0  0  0  0  0
   -1.3498   -1.2713   11.8472 C   0  0  0  0  0  0  0  0  0  0  0  0
   -0.7353   -0.0270   11.9078 C   0  0  0  0  0  0  0  0  0  0  0  0
   -0.7137    0.8533   10.8408 C   0  0  0  0  0  0  0  0  0  0  0  0
   -1.3537    0.4580    9.6651 C   0  0  0  0  0  0  0  0  0  0  0  0
   -0.1835    0.1363   13.2408 C   0  0  0  0  0  0  0  0  0  0  0  0
    0.4338    1.2081   13.6279 N   0  0  0  0  0  0  0  0  0  0  0  0
    0.8426    1.0802   14.9591 O   0  0  0  0  0  0  0  0  0  0  0  0
   -0.4541   -1.1055   14.0572 C   0  0  0  0  0  0  0  0  0  0  0  0
   -1.2450   -2.0356   13.1262 C   0  0  0  0  0  0  0  0  0  0  0  0
    1.2682    1.9411   15.1287 H   0  0  0  0  0  0  0  0  0  0  0  0
   -9.2265    0.4415    5.1810 C   0  0  0  0  0  0  0  0  0  0  0  0
   -7.8063   -0.0336    4.8675 C   0  0  0  0  0  0  0  0  0  0  0  0
   -6.7812    0.9869    5.3981 C   0  0  0  0  0  0  0  0  0  0  0  0
   -5.3538    0.4367    5.3994 C   0  0  0  0  0  0  0  0  0  0  0  0
   -5.3958   -0.7991    6.1596 N   0  0  0  0  0  0  0  0  0  0  0  0
   -6.1073   -1.8562    5.4663 C   0  0  0  0  0  0  0  0  0  0  0  0
   -7.5826   -1.4459    5.4451 C   0  0  0  0  0  0  0  0  0  0  0  0
   -1.4562   -3.2532    7.5605 C   0  0  0  0  0  0  0  0  0  0  0  0
   -0.1236   -2.9122    7.7756 C   0  0  0  0  0  0  0  0  0  0  0  0
    0.7789   -3.9375    8.0079 C   0  0  0  0  0  0  0  0  0  0  0  0
    0.4474   -5.2481    8.0283 N   0  0  0  0  0  0  0  0  0  0  0  0
   -0.8450   -5.5524    7.7912 C   0  0  0  0  0  0  0  0  0  0  0  0
   -1.8219   -4.6032    7.5527 C   0  0  0  0  0  0  0  0  0  0  0  0
 18 19  1  0  0  0
 19 20  1  0  0  0
 20 21  1  0  0  0
 21 22  1  0  0  0
 22 23  1  0  0  0
 23 24  1  0  0  0
 19 24  1  0  0  0
 22  1  1  0  0  0
  1  2  1  0  0  0
  2  3  2  0  0  0
  3  4  1  0  0  0
  4  5  2  0  0  0
  1  5  1  0  0  0
  4 25  1  0  0  0
 25 26  2  0  0  0
 26 27  1  0  0  0
 27 28  2  0  0  0
 28 29  1  0  0  0
 29 30  2  0  0  0
 25 30  1  0  0  0
  3  6  1  0  0  0
  6  7  2  0  0  0
  7  8  1  0  0  0
  8  9  2  0  0  0
  9 10  1  0  0  0
 10 11  2  0  0  0
  6 11  1  0  0  0
  9 12  1  0  0  0
 12 13  2  0  0  0
 13 14  1  0  0  0
 12 15  1  0  0  0
 15 16  1  0  0  0
  8 16  1  0  0  0
 14 17  1  0  0  0
M  END
> <minimizedAffinity>
-10.22405

$$$$
