mol_11531192_0


 31 35  0  0  0  0  0  0  0  0999 V2000
    4.4729   -2.7533  -19.9807 N   0  0  0  0  0  0  0  0  0  0  0  0
    3.1598   -2.4332  -19.7513 C   0  0  0  0  0  0  0  0  0  0  0  0
    2.4894   -2.7311  -20.9166 C   0  0  0  0  0  0  0  0  0  0  0  0
    3.5005   -3.1592  -21.8275 C   0  0  0  0  0  0  0  0  0  0  0  0
    4.7018   -3.1671  -21.2389 N   0  0  0  0  0  0  0  0  0  0  0  0
    1.0527   -2.6804  -21.1048 C   0  0  0  0  0  0  0  0  0  0  0  0
    0.4137   -1.4276  -21.0561 C   0  0  0  0  0  0  0  0  0  0  0  0
   -0.9689   -1.3766  -21.0317 C   0  0  0  0  0  0  0  0  0  0  0  0
   -1.7022   -2.5527  -21.0915 C   0  0  0  0  0  0  0  0  0  0  0  0
   -1.1084   -3.8001  -21.1933 C   0  0  0  0  0  0  0  0  0  0  0  0
    0.2899   -3.8603  -21.1989 C   0  0  0  0  0  0  0  0  0  0  0  0
   -3.1097   -2.2075  -20.9747 C   0  0  0  0  0  0  0  0  0  0  0  0
   -4.0606   -3.0870  -20.9604 N   0  0  0  0  0  0  0  0  0  0  0  0
   -5.3026   -2.4580  -20.8183 O   0  0  0  0  0  0  0  0  0  0  0  0
   -3.2566   -0.7074  -20.8576 C   0  0  0  0  0  0  0  0  0  0  0  0
   -1.8232   -0.1596  -20.8823 C   0  0  0  0  0  0  0  0  0  0  0  0
   -5.9184   -3.2137  -20.8027 H   0  0  0  0  0  0  0  0  0  0  0  0
    7.5109   -1.7094  -20.3556 C   0  0  0  0  0  0  0  0  0  0  0  0
    6.5501   -1.5446  -19.1714 C   0  0  0  0  0  0  0  0  0  0  0  0
    5.5605   -2.7203  -19.0002 C   0  0  0  0  0  0  0  0  0  0  0  0
    6.3347   -4.0455  -18.9705 C   0  0  0  0  0  0  0  0  0  0  0  0
    7.2063   -4.2203  -20.2127 C   0  0  0  0  0  0  0  0  0  0  0  0
    8.1981   -3.0692  -20.3651 C   0  0  0  0  0  0  0  0  0  0  0  0
    7.9160   -5.4522  -20.1132 O   0  0  0  0  0  0  0  0  0  0  0  0
    8.5791   -5.3691  -19.4069 H   0  0  0  0  0  0  0  0  0  0  0  0
    3.3286   -3.5932  -23.2086 C   0  0  0  0  0  0  0  0  0  0  0  0
    2.5871   -4.7392  -23.4923 C   0  0  0  0  0  0  0  0  0  0  0  0
    2.3615   -5.0567  -24.8195 C   0  0  0  0  0  0  0  0  0  0  0  0
    2.8253   -4.3267  -25.8576 N   0  0  0  0  0  0  0  0  0  0  0  0
    3.5613   -3.2361  -25.5545 C   0  0  0  0  0  0  0  0  0  0  0  0
    3.8399   -2.8322  -24.2614 C   0  0  0  0  0  0  0  0  0  0  0  0
 18 19  1  0  0  0
 19 20  1  0  0  0
 20 21  1  0  0  0
 21 22  1  0  0  0
 22 23  1  0  0  0
 18 23  1  0  0  0
 22 24  1  0  0  0
 20  1  1  0  0  0
  1  2  1  0  0  0
  2  3  2  0  0  0
  3  4  1  0  0  0
  4  5  2  0  0  0
  1  5  1  0  0  0
  4 26  1  0  0  0
 26 27  2  0  0  0
 27 28  1  0  0  0
 28 29  2  0  0  0
 29 30  1  0  0  0
 30 31  2  0  0  0
 26 31  1  0  0  0
  3  6  1  0  0  0
  6  7  2  0  0  0
  7  8  1  0  0  0
  8  9  2  0  0  0
  9 10  1  0  0  0
 10 11  2  0  0  0
  6 11  1  0  0  0
  9 12  1  0  0  0
 12 13  2  0  0  0
 13 14  1  0  0  0
 12 15  1  0  0  0
 15 16  1  0  0  0
  8 16  1  0  0  0
 24 25  1  0  0  0
 14 17  1  0  0  0
M  END
> <minimizedAffinity>
-11.57488

$$$$
mol_11531192_0


 31 35  0  0  0  0  0  0  0  0999 V2000
    5.5701   -3.1493  -21.9363 N   0  0  0  0  0  0  0  0  0  0  0  0
    4.3241   -2.6873  -21.5993 C   0  0  0  0  0  0  0  0  0  0  0  0
    3.4326   -3.4313  -22.3394 C   0  0  0  0  0  0  0  0  0  0  0  0
    4.2420   -4.2742  -23.1577 C   0  0  0  0  0  0  0  0  0  0  0  0
    5.5410   -4.0888  -22.8971 N   0  0  0  0  0  0  0  0  0  0  0  0
    1.9883   -3.3881  -22.2203 C   0  0  0  0  0  0  0  0  0  0  0  0
    1.3966   -2.2484  -21.6448 C   0  0  0  0  0  0  0  0  0  0  0  0
    0.0472   -2.2710  -21.3391 C   0  0  0  0  0  0  0  0  0  0  0  0
   -0.7068   -3.3972  -21.6355 C   0  0  0  0  0  0  0  0  0  0  0  0
   -0.1698   -4.5166  -22.2497 C   0  0  0  0  0  0  0  0  0  0  0  0
    1.1985   -4.5081  -22.5440 C   0  0  0  0  0  0  0  0  0  0  0  0
   -2.0566   -3.1726  -21.1438 C   0  0  0  0  0  0  0  0  0  0  0  0
   -3.0034   -4.0520  -21.2332 N   0  0  0  0  0  0  0  0  0  0  0  0
   -4.1802   -3.5597  -20.6578 O   0  0  0  0  0  0  0  0  0  0  0  0
   -2.1475   -1.7987  -20.5195 C   0  0  0  0  0  0  0  0  0  0  0  0
   -0.7364   -1.2075  -20.6405 C   0  0  0  0  0  0  0  0  0  0  0  0
   -4.7959   -4.3073  -20.7704 H   0  0  0  0  0  0  0  0  0  0  0  0
    7.1005   -4.4395  -19.3961 C   0  0  0  0  0  0  0  0  0  0  0  0
    7.6622   -3.9082  -20.7208 C   0  0  0  0  0  0  0  0  0  0  0  0
    6.8406   -2.7477  -21.3283 C   0  0  0  0  0  0  0  0  0  0  0  0
    6.6402   -1.6506  -20.2734 C   0  0  0  0  0  0  0  0  0  0  0  0
    5.9887   -2.1971  -19.0046 C   0  0  0  0  0  0  0  0  0  0  0  0
    6.8154   -3.3270  -18.3948 C   0  0  0  0  0  0  0  0  0  0  0  0
    5.8539   -1.1397  -18.0586 O   0  0  0  0  0  0  0  0  0  0  0  0
    6.7405   -0.8931  -17.7445 H   0  0  0  0  0  0  0  0  0  0  0  0
    3.7964   -5.2636  -24.1314 C   0  0  0  0  0  0  0  0  0  0  0  0
    3.4655   -4.8676  -25.4264 C   0  0  0  0  0  0  0  0  0  0  0  0
    3.1482   -5.8502  -26.3467 C   0  0  0  0  0  0  0  0  0  0  0  0
    3.1312   -7.1709  -26.0621 N   0  0  0  0  0  0  0  0  0  0  0  0
    3.4313   -7.5246  -24.7942 C   0  0  0  0  0  0  0  0  0  0  0  0
    3.7649   -6.6199  -23.8026 C   0  0  0  0  0  0  0  0  0  0  0  0
 18 19  1  0  0  0
 19 20  1  0  0  0
 20 21  1  0  0  0
 21 22  1  0  0  0
 22 23  1  0  0  0
 18 23  1  0  0  0
 22 24  1  0  0  0
 20  1  1  0  0  0
  1  2  1  0  0  0
  2  3  2  0  0  0
  3  4  1  0  0  0
  4  5  2  0  0  0
  1  5  1  0  0  0
  4 26  1  0  0  0
 26 27  2  0  0  0
 27 28  1  0  0  0
 28 29  2  0  0  0
 29 30  1  0  0  0
 30 31  2  0  0  0
 26 31  1  0  0  0
  3  6  1  0  0  0
  6  7  2  0  0  0
  7  8  1  0  0  0
  8  9  2  0  0  0
  9 10  1  0  0  0
 10 11  2  0  0  0
  6 11  1  0  0  0
  9 12  1  0  0  0
 12 13  2  0  0  0
 13 14  1  0  0  0
 12 15  1  0  0  0
 15 16  1  0  0  0
  8 16  1  0  0  0
 24 25  1  0  0  0
 14 17  1  0  0  0
M  END
> <minimizedAffinity>
-11.30297

$$$$
mol_11531192_0


 31 35  0  0  0  0  0  0  0  0999 V2000
    4.2076   -3.8891  -23.2601 N   0  0  0  0  0  0  0  0  0  0  0  0
    2.8488   -4.0366  -23.3664 C   0  0  0  0  0  0  0  0  0  0  0  0
    2.3163   -3.4523  -22.2391 C   0  0  0  0  0  0  0  0  0  0  0  0
    3.4429   -3.0412  -21.4665 C   0  0  0  0  0  0  0  0  0  0  0  0
    4.5860   -3.3148  -22.1054 N   0  0  0  0  0  0  0  0  0  0  0  0
    0.9050   -3.2498  -21.9752 C   0  0  0  0  0  0  0  0  0  0  0  0
    0.4218   -1.9311  -21.8870 C   0  0  0  0  0  0  0  0  0  0  0  0
   -0.8697   -1.7150  -21.4396 C   0  0  0  0  0  0  0  0  0  0  0  0
   -1.6776   -2.7967  -21.1205 C   0  0  0  0  0  0  0  0  0  0  0  0
   -1.2536   -4.1095  -21.2453 C   0  0  0  0  0  0  0  0  0  0  0  0
    0.0580   -4.3348  -21.6787 C   0  0  0  0  0  0  0  0  0  0  0  0
   -2.9385   -2.2783  -20.6152 C   0  0  0  0  0  0  0  0  0  0  0  0
   -3.9031   -3.0341  -20.1955 N   0  0  0  0  0  0  0  0  0  0  0  0
   -4.9762   -2.2524  -19.7534 O   0  0  0  0  0  0  0  0  0  0  0  0
   -2.9152   -0.7670  -20.6467 C   0  0  0  0  0  0  0  0  0  0  0  0
   -1.5264   -0.3970  -21.1850 C   0  0  0  0  0  0  0  0  0  0  0  0
   -5.6143   -2.9253  -19.4524 H   0  0  0  0  0  0  0  0  0  0  0  0
    4.0207   -6.1334  -25.5813 C   0  0  0  0  0  0  0  0  0  0  0  0
    4.6134   -4.7193  -25.6217 C   0  0  0  0  0  0  0  0  0  0  0  0
    5.2035   -4.2493  -24.2719 C   0  0  0  0  0  0  0  0  0  0  0  0
    6.1883   -5.3026  -23.7453 C   0  0  0  0  0  0  0  0  0  0  0  0
    5.5356   -6.6784  -23.6253 C   0  0  0  0  0  0  0  0  0  0  0  0
    4.9751   -7.1491  -24.9655 C   0  0  0  0  0  0  0  0  0  0  0  0
    6.5043   -7.6135  -23.1579 O   0  0  0  0  0  0  0  0  0  0  0  0
    7.1584   -7.7571  -23.8629 H   0  0  0  0  0  0  0  0  0  0  0  0
    3.4379   -2.3654  -20.1747 C   0  0  0  0  0  0  0  0  0  0  0  0
    2.4471   -2.6579  -19.2386 C   0  0  0  0  0  0  0  0  0  0  0  0
    2.5391   -2.0726  -17.9887 C   0  0  0  0  0  0  0  0  0  0  0  0
    3.5277   -1.2267  -17.6245 N   0  0  0  0  0  0  0  0  0  0  0  0
    4.4600   -0.9413  -18.5585 C   0  0  0  0  0  0  0  0  0  0  0  0
    4.4590   -1.4767  -19.8337 C   0  0  0  0  0  0  0  0  0  0  0  0
 18 19  1  0  0  0
 19 20  1  0  0  0
 20 21  1  0  0  0
 21 22  1  0  0  0
 22 23  1  0  0  0
 18 23  1  0  0  0
 22 24  1  0  0  0
 20  1  1  0  0  0
  1  2  1  0  0  0
  2  3  2  0  0  0
  3  4  1  0  0  0
  4  5  2  0  0  0
  1  5  1  0  0  0
  4 26  1  0  0  0
 26 27  2  0  0  0
 27 28  1  0  0  0
 28 29  2  0  0  0
 29 30  1  0  0  0
 30 31  2  0  0  0
 26 31  1  0  0  0
  3  6  1  0  0  0
  6  7  2  0  0  0
  7  8  1  0  0  0
  8  9  2  0  0  0
  9 10  1  0  0  0
 10 11  2  0  0  0
  6 11  1  0  0  0
  9 12  1  0  0  0
 12 13  2  0  0  0
 13 14  1  0  0  0
 12 15  1  0  0  0
 15 16  1  0  0  0
  8 16  1  0  0  0
 24 25  1  0  0  0
 14 17  1  0  0  0
M  END
> <minimizedAffinity>
-10.95589

$$$$
mol_44587190_1


 28 31  0  0  0  0  0  0  0  0999 V2000
    2.4050   -2.7274  -20.8640 C   0  0  0  0  0  0  0  0  0  0  0  0
    3.1010   -2.5569  -19.6896 C   0  0  0  0  0  0  0  0  0  0  0  0
    4.3976   -2.8758  -19.9761 N   0  0  0  0  0  0  0  0  0  0  0  0
    4.6020   -3.2015  -21.2684 N   0  0  0  0  0  0  0  0  0  0  0  0
    3.3808   -3.1367  -21.8209 C   0  0  0  0  0  0  0  0  0  0  0  0
   -1.7841    0.0610  -20.8593 C   0  0  0  0  0  0  0  0  0  0  0  0
   -3.2430   -0.4131  -20.9219 C   0  0  0  0  0  0  0  0  0  0  0  0
   -3.1660   -1.9200  -21.0060 C   0  0  0  0  0  0  0  0  0  0  0  0
   -4.1598   -2.7509  -21.0411 N   0  0  0  0  0  0  0  0  0  0  0  0
   -5.3748   -2.0588  -20.9883 O   0  0  0  0  0  0  0  0  0  0  0  0
   -1.7737   -2.3360  -21.0431 C   0  0  0  0  0  0  0  0  0  0  0  0
   -0.9837   -1.1970  -20.9620 C   0  0  0  0  0  0  0  0  0  0  0  0
    0.3960   -1.3154  -20.9473 C   0  0  0  0  0  0  0  0  0  0  0  0
    0.9699   -2.5970  -21.0062 C   0  0  0  0  0  0  0  0  0  0  0  0
    0.1509   -3.7392  -21.1044 C   0  0  0  0  0  0  0  0  0  0  0  0
   -1.2417   -3.6118  -21.1216 C   0  0  0  0  0  0  0  0  0  0  0  0
   -6.0281   -2.7824  -21.0131 H   0  0  0  0  0  0  0  0  0  0  0  0
    3.1404   -3.4928  -23.2129 C   0  0  0  0  0  0  0  0  0  0  0  0
    2.3498   -4.5975  -23.5331 C   0  0  0  0  0  0  0  0  0  0  0  0
    2.2508   -4.9654  -24.8628 C   0  0  0  0  0  0  0  0  0  0  0  0
    2.8767   -4.3174  -25.8686 N   0  0  0  0  0  0  0  0  0  0  0  0
    3.6213   -3.2418  -25.5314 C   0  0  0  0  0  0  0  0  0  0  0  0
    3.7790   -2.7899  -24.2333 C   0  0  0  0  0  0  0  0  0  0  0  0
    5.5113   -2.8784  -19.0463 C   0  0  0  0  0  0  0  0  0  0  0  0
    6.6106   -3.8861  -19.3880 C   0  0  0  0  0  0  0  0  0  0  0  0
    7.4208   -4.3854  -18.1959 C   0  0  0  0  0  0  0  0  0  0  0  0
    8.1556   -3.3253  -17.6033 O   0  0  0  0  0  0  0  0  0  0  0  0
    9.0058   -3.2867  -18.0858 H   0  0  0  0  0  0  0  0  0  0  0  0
  6  7  1  0  0  0
  7  8  1  0  0  0
  8  9  2  0  0  0
  9 10  1  0  0  0
  8 11  1  0  0  0
 11 12  2  0  0  0
  6 12  1  0  0  0
 12 13  1  0  0  0
 13 14  2  0  0  0
 14 15  1  0  0  0
 15 16  2  0  0  0
 11 16  1  0  0  0
 14  1  1  0  0  0
  1  2  2  0  0  0
  2  3  1  0  0  0
  3  4  1  0  0  0
  4  5  2  0  0  0
  1  5  1  0  0  0
  5 18  1  0  0  0
 18 19  2  0  0  0
 19 20  1  0  0  0
 20 21  2  0  0  0
 21 22  1  0  0  0
 22 23  2  0  0  0
 18 23  1  0  0  0
  3 24  1  0  0  0
 24 25  1  0  0  0
 25 26  1  0  0  0
 26 27  1  0  0  0
 10 17  1  0  0  0
 27 28  1  0  0  0
M  END
> <minimizedAffinity>
-9.94814

$$$$
mol_44587190_1


 28 31  0  0  0  0  0  0  0  0999 V2000
    2.5051   -2.7558  -20.8839 C   0  0  0  0  0  0  0  0  0  0  0  0
    3.2095   -2.5797  -19.7154 C   0  0  0  0  0  0  0  0  0  0  0  0
    4.4994   -2.9235  -20.0032 N   0  0  0  0  0  0  0  0  0  0  0  0
    4.6923   -3.2709  -21.2916 N   0  0  0  0  0  0  0  0  0  0  0  0
    3.4696   -3.1945  -21.8393 C   0  0  0  0  0  0  0  0  0  0  0  0
   -1.6415    0.0954  -20.8757 C   0  0  0  0  0  0  0  0  0  0  0  0
   -3.1076   -0.3570  -20.9308 C   0  0  0  0  0  0  0  0  0  0  0  0
   -3.0536   -1.8652  -21.0086 C   0  0  0  0  0  0  0  0  0  0  0  0
   -4.0599   -2.6812  -21.0365 N   0  0  0  0  0  0  0  0  0  0  0  0
   -5.2641   -1.9707  -20.9822 O   0  0  0  0  0  0  0  0  0  0  0  0
   -1.6679   -2.3023  -21.0491 C   0  0  0  0  0  0  0  0  0  0  0  0
   -0.8605   -1.1750  -20.9759 C   0  0  0  0  0  0  0  0  0  0  0  0
    0.5173   -1.3141  -20.9658 C   0  0  0  0  0  0  0  0  0  0  0  0
    1.0717   -2.6045  -21.0213 C   0  0  0  0  0  0  0  0  0  0  0  0
    0.2352   -3.7346  -21.1116 C   0  0  0  0  0  0  0  0  0  0  0  0
   -1.1554   -3.5863  -21.1242 C   0  0  0  0  0  0  0  0  0  0  0  0
   -5.9283   -2.6845  -21.0014 H   0  0  0  0  0  0  0  0  0  0  0  0
    3.2167   -3.5667  -23.2248 C   0  0  0  0  0  0  0  0  0  0  0  0
    3.7741   -2.8261  -24.2683 C   0  0  0  0  0  0  0  0  0  0  0  0
    3.4074   -3.1452  -25.5632 C   0  0  0  0  0  0  0  0  0  0  0  0
    2.5395   -4.1315  -25.8753 N   0  0  0  0  0  0  0  0  0  0  0  0
    2.0288   -4.8428  -24.8466 C   0  0  0  0  0  0  0  0  0  0  0  0
    2.3364   -4.6069  -23.5185 C   0  0  0  0  0  0  0  0  0  0  0  0
    5.6174   -2.9305  -19.0786 C   0  0  0  0  0  0  0  0  0  0  0  0
    6.5858   -1.7597  -19.2574 C   0  0  0  0  0  0  0  0  0  0  0  0
    8.0320   -2.1561  -19.5374 C   0  0  0  0  0  0  0  0  0  0  0  0
    8.8514   -1.9163  -18.4033 O   0  0  0  0  0  0  0  0  0  0  0  0
    9.1550   -0.9898  -18.4838 H   0  0  0  0  0  0  0  0  0  0  0  0
  6  7  1  0  0  0
  7  8  1  0  0  0
  8  9  2  0  0  0
  9 10  1  0  0  0
  8 11  1  0  0  0
 11 12  2  0  0  0
  6 12  1  0  0  0
 12 13  1  0  0  0
 13 14  2  0  0  0
 14 15  1  0  0  0
 15 16  2  0  0  0
 11 16  1  0  0  0
 14  1  1  0  0  0
  1  2  2  0  0  0
  2  3  1  0  0  0
  3  4  1  0  0  0
  4  5  2  0  0  0
  1  5  1  0  0  0
  5 18  1  0  0  0
 18 19  2  0  0  0
 19 20  1  0  0  0
 20 21  2  0  0  0
 21 22  1  0  0  0
 22 23  2  0  0  0
 18 23  1  0  0  0
  3 24  1  0  0  0
 24 25  1  0  0  0
 25 26  1  0  0  0
 26 27  1  0  0  0
 10 17  1  0  0  0
 27 28  1  0  0  0
M  END
> <minimizedAffinity>
-9.74876

$$$$
mol_44587190_1


 28 31  0  0  0  0  0  0  0  0999 V2000
    2.1537   -3.3757  -22.1227 C   0  0  0  0  0  0  0  0  0  0  0  0
    2.6372   -3.9427  -23.2792 C   0  0  0  0  0  0  0  0  0  0  0  0
    3.9975   -3.8573  -23.1947 N   0  0  0  0  0  0  0  0  0  0  0  0
    4.4351   -3.3117  -22.0420 N   0  0  0  0  0  0  0  0  0  0  0  0
    3.3111   -2.9898  -21.3832 C   0  0  0  0  0  0  0  0  0  0  0  0
   -1.7166   -0.3109  -21.1472 C   0  0  0  0  0  0  0  0  0  0  0  0
   -3.1357   -0.6841  -20.6956 C   0  0  0  0  0  0  0  0  0  0  0  0
   -3.1424   -2.1933  -20.6190 C   0  0  0  0  0  0  0  0  0  0  0  0
   -4.1246   -2.9507  -20.2438 N   0  0  0  0  0  0  0  0  0  0  0  0
   -5.2349   -2.1723  -19.8984 O   0  0  0  0  0  0  0  0  0  0  0  0
   -1.8494   -2.7088  -21.0377 C   0  0  0  0  0  0  0  0  0  0  0  0
   -1.0349   -1.6265  -21.3430 C   0  0  0  0  0  0  0  0  0  0  0  0
    0.2731   -1.8404  -21.7444 C   0  0  0  0  0  0  0  0  0  0  0  0
    0.7532   -3.1589  -21.8257 C   0  0  0  0  0  0  0  0  0  0  0  0
   -0.0944   -4.2441  -21.5271 C   0  0  0  0  0  0  0  0  0  0  0  0
   -1.4151   -4.0205  -21.1252 C   0  0  0  0  0  0  0  0  0  0  0  0
   -5.8873   -2.8464  -19.6321 H   0  0  0  0  0  0  0  0  0  0  0  0
    3.3356   -2.2975  -20.1018 C   0  0  0  0  0  0  0  0  0  0  0  0
    4.4122   -1.4767  -19.7626 C   0  0  0  0  0  0  0  0  0  0  0  0
    4.4466   -0.9388  -18.4888 C   0  0  0  0  0  0  0  0  0  0  0  0
    3.4985   -1.1638  -17.5541 N   0  0  0  0  0  0  0  0  0  0  0  0
    2.4595   -1.9481  -17.9154 C   0  0  0  0  0  0  0  0  0  0  0  0
    2.3295   -2.5278  -19.1648 C   0  0  0  0  0  0  0  0  0  0  0  0
    4.9534   -4.2969  -24.1937 C   0  0  0  0  0  0  0  0  0  0  0  0
    5.5654   -5.6708  -23.9136 C   0  0  0  0  0  0  0  0  0  0  0  0
    4.8236   -6.8470  -24.5408 C   0  0  0  0  0  0  0  0  0  0  0  0
    3.7720   -7.2905  -23.6967 O   0  0  0  0  0  0  0  0  0  0  0  0
    4.1732   -7.9463  -23.0916 H   0  0  0  0  0  0  0  0  0  0  0  0
  6  7  1  0  0  0
  7  8  1  0  0  0
  8  9  2  0  0  0
  9 10  1  0  0  0
  8 11  1  0  0  0
 11 12  2  0  0  0
  6 12  1  0  0  0
 12 13  1  0  0  0
 13 14  2  0  0  0
 14 15  1  0  0  0
 15 16  2  0  0  0
 11 16  1  0  0  0
 14  1  1  0  0  0
  1  2  2  0  0  0
  2  3  1  0  0  0
  3  4  1  0  0  0
  4  5  2  0  0  0
  1  5  1  0  0  0
  5 18  1  0  0  0
 18 19  2  0  0  0
 19 20  1  0  0  0
 20 21  2  0  0  0
 21 22  1  0  0  0
 22 23  2  0  0  0
 18 23  1  0  0  0
  3 24  1  0  0  0
 24 25  1  0  0  0
 25 26  1  0  0  0
 26 27  1  0  0  0
 10 17  1  0  0  0
 27 28  1  0  0  0
M  END
> <minimizedAffinity>
-9.19017

$$$$
mol_11653652_2


 30 34  0  0  0  0  0  0  0  0999 V2000
    4.5198   -2.6847  -20.4240 N   0  0  0  0  0  0  0  0  0  0  0  0
    3.2289   -2.3675  -20.0905 C   0  0  0  0  0  0  0  0  0  0  0  0
    2.4540   -2.7524  -21.1621 C   0  0  0  0  0  0  0  0  0  0  0  0
    3.3780   -3.2341  -22.1334 C   0  0  0  0  0  0  0  0  0  0  0  0
    4.6310   -3.2029  -21.6623 N   0  0  0  0  0  0  0  0  0  0  0  0
    1.0059   -2.7263  -21.1950 C   0  0  0  0  0  0  0  0  0  0  0  0
    0.3512   -1.4887  -21.0625 C   0  0  0  0  0  0  0  0  0  0  0  0
   -1.0326   -1.4615  -21.0066 C   0  0  0  0  0  0  0  0  0  0  0  0
   -1.7495   -2.6476  -21.0854 C   0  0  0  0  0  0  0  0  0  0  0  0
   -1.1390   -3.8819  -21.2314 C   0  0  0  0  0  0  0  0  0  0  0  0
    0.2588   -3.9166  -21.2897 C   0  0  0  0  0  0  0  0  0  0  0  0
   -3.1630   -2.3258  -20.9709 C   0  0  0  0  0  0  0  0  0  0  0  0
   -4.1017   -3.2186  -20.9841 N   0  0  0  0  0  0  0  0  0  0  0  0
   -5.3547   -2.6091  -20.8520 O   0  0  0  0  0  0  0  0  0  0  0  0
   -3.3333   -0.8300  -20.8371 C   0  0  0  0  0  0  0  0  0  0  0  0
   -1.9072   -0.2615  -20.8363 C   0  0  0  0  0  0  0  0  0  0  0  0
   -5.9605   -3.3730  -20.8622 H   0  0  0  0  0  0  0  0  0  0  0  0
    6.1579   -3.8075  -18.9408 C   0  0  0  0  0  0  0  0  0  0  0  0
    7.4174   -3.6073  -18.1038 C   0  0  0  0  0  0  0  0  0  0  0  0
    8.4927   -3.0230  -18.8976 N   0  0  0  0  0  0  0  0  0  0  0  0
    8.1137   -1.7237  -19.4470 C   0  0  0  0  0  0  0  0  0  0  0  0
    6.8839   -1.8425  -20.3374 C   0  0  0  0  0  0  0  0  0  0  0  0
    5.7060   -2.4906  -19.5880 C   0  0  0  0  0  0  0  0  0  0  0  0
    9.3291   -2.9188  -18.3226 H   0  0  0  0  0  0  0  0  0  0  0  0
    3.0861   -3.7205  -23.4740 C   0  0  0  0  0  0  0  0  0  0  0  0
    3.5675   -3.0395  -24.5905 C   0  0  0  0  0  0  0  0  0  0  0  0
    3.3019   -3.5709  -25.8400 C   0  0  0  0  0  0  0  0  0  0  0  0
    2.5958   -4.7054  -26.0417 N   0  0  0  0  0  0  0  0  0  0  0  0
    2.1254   -5.3332  -24.9426 C   0  0  0  0  0  0  0  0  0  0  0  0
    2.3440   -4.8889  -23.6512 C   0  0  0  0  0  0  0  0  0  0  0  0
 18 19  1  0  0  0
 19 20  1  0  0  0
 20 21  1  0  0  0
 21 22  1  0  0  0
 22 23  1  0  0  0
 18 23  1  0  0  0
 23  1  1  0  0  0
  1  2  1  0  0  0
  2  3  2  0  0  0
  3  4  1  0  0  0
  4  5  2  0  0  0
  1  5  1  0  0  0
  4 25  1  0  0  0
 25 26  2  0  0  0
 26 27  1  0  0  0
 27 28  2  0  0  0
 28 29  1  0  0  0
 29 30  2  0  0  0
 25 30  1  0  0  0
  3  6  1  0  0  0
  6  7  2  0  0  0
  7  8  1  0  0  0
  8  9  2  0  0  0
  9 10  1  0  0  0
 10 11  2  0  0  0
  6 11  1  0  0  0
  9 12  1  0  0  0
 12 13  2  0  0  0
 13 14  1  0  0  0
 12 15  1  0  0  0
 15 16  1  0  0  0
  8 16  1  0  0  0
 20 24  1  0  0  0
 14 17  1  0  0  0
M  END
> <minimizedAffinity>
-11.25947

$$$$
mol_11653652_2


 30 34  0  0  0  0  0  0  0  0999 V2000
    4.8657   -2.6504  -20.8739 N   0  0  0  0  0  0  0  0  0  0  0  0
    3.5629   -2.4122  -20.5215 C   0  0  0  0  0  0  0  0  0  0  0  0
    2.7923   -2.9532  -21.5267 C   0  0  0  0  0  0  0  0  0  0  0  0
    3.7249   -3.4417  -22.4864 C   0  0  0  0  0  0  0  0  0  0  0  0
    4.9841   -3.2657  -22.0662 N   0  0  0  0  0  0  0  0  0  0  0  0
    1.3469   -3.0493  -21.5083 C   0  0  0  0  0  0  0  0  0  0  0  0
    0.6000   -1.9072  -21.1686 C   0  0  0  0  0  0  0  0  0  0  0  0
   -0.7774   -2.0098  -21.0643 C   0  0  0  0  0  0  0  0  0  0  0  0
   -1.3979   -3.2292  -21.2987 C   0  0  0  0  0  0  0  0  0  0  0  0
   -0.6959   -4.3701  -21.6497 C   0  0  0  0  0  0  0  0  0  0  0  0
    0.6960   -4.2733  -21.7580 C   0  0  0  0  0  0  0  0  0  0  0  0
   -2.8263   -3.0529  -21.0910 C   0  0  0  0  0  0  0  0  0  0  0  0
   -3.6887   -4.0126  -21.2089 N   0  0  0  0  0  0  0  0  0  0  0  0
   -4.9800   -3.5414  -20.9453 O   0  0  0  0  0  0  0  0  0  0  0  0
   -3.1120   -1.6142  -20.7265 C   0  0  0  0  0  0  0  0  0  0  0  0
   -1.7386   -0.9295  -20.6859 C   0  0  0  0  0  0  0  0  0  0  0  0
   -5.5212   -4.3455  -21.0515 H   0  0  0  0  0  0  0  0  0  0  0  0
    6.4601   -3.4057  -19.1328 C   0  0  0  0  0  0  0  0  0  0  0  0
    7.7232   -3.0373  -18.3608 C   0  0  0  0  0  0  0  0  0  0  0  0
    8.8201   -2.7118  -19.2654 N   0  0  0  0  0  0  0  0  0  0  0  0
    8.4873   -1.5862  -20.1348 C   0  0  0  0  0  0  0  0  0  0  0  0
    7.2568   -1.8906  -20.9791 C   0  0  0  0  0  0  0  0  0  0  0  0
    6.0553   -2.2859  -20.1020 C   0  0  0  0  0  0  0  0  0  0  0  0
    9.6578   -2.4900  -18.7267 H   0  0  0  0  0  0  0  0  0  0  0  0
    3.4360   -4.0677  -23.7684 C   0  0  0  0  0  0  0  0  0  0  0  0
    3.2194   -5.4419  -23.8482 C   0  0  0  0  0  0  0  0  0  0  0  0
    2.9012   -5.9790  -25.0828 C   0  0  0  0  0  0  0  0  0  0  0  0
    2.7976   -5.2513  -26.2169 N   0  0  0  0  0  0  0  0  0  0  0  0
    3.0320   -3.9255  -26.1131 C   0  0  0  0  0  0  0  0  0  0  0  0
    3.3471   -3.2916  -24.9248 C   0  0  0  0  0  0  0  0  0  0  0  0
 18 19  1  0  0  0
 19 20  1  0  0  0
 20 21  1  0  0  0
 21 22  1  0  0  0
 22 23  1  0  0  0
 18 23  1  0  0  0
 23  1  1  0  0  0
  1  2  1  0  0  0
  2  3  2  0  0  0
  3  4  1  0  0  0
  4  5  2  0  0  0
  1  5  1  0  0  0
  4 25  1  0  0  0
 25 26  2  0  0  0
 26 27  1  0  0  0
 27 28  2  0  0  0
 28 29  1  0  0  0
 29 30  2  0  0  0
 25 30  1  0  0  0
  3  6  1  0  0  0
  6  7  2  0  0  0
  7  8  1  0  0  0
  8  9  2  0  0  0
  9 10  1  0  0  0
 10 11  2  0  0  0
  6 11  1  0  0  0
  9 12  1  0  0  0
 12 13  2  0  0  0
 13 14  1  0  0  0
 12 15  1  0  0  0
 15 16  1  0  0  0
  8 16  1  0  0  0
 20 24  1  0  0  0
 14 17  1  0  0  0
M  END
> <minimizedAffinity>
-10.50765

$$$$
mol_11653652_2


 30 34  0  0  0  0  0  0  0  0999 V2000
    3.9596   -3.8301  -23.3020 N   0  0  0  0  0  0  0  0  0  0  0  0
    2.5957   -3.9630  -23.3279 C   0  0  0  0  0  0  0  0  0  0  0  0
    2.1351   -3.3809  -22.1678 C   0  0  0  0  0  0  0  0  0  0  0  0
    3.3069   -2.9799  -21.4639 C   0  0  0  0  0  0  0  0  0  0  0  0
    4.4097   -3.2444  -22.1757 N   0  0  0  0  0  0  0  0  0  0  0  0
    0.7400   -3.1749  -21.8362 C   0  0  0  0  0  0  0  0  0  0  0  0
    0.2604   -1.8572  -21.7292 C   0  0  0  0  0  0  0  0  0  0  0  0
   -1.0491   -1.6476  -21.3292 C   0  0  0  0  0  0  0  0  0  0  0  0
   -1.8657   -2.7335  -21.0450 C   0  0  0  0  0  0  0  0  0  0  0  0
   -1.4318   -4.0441  -21.1542 C   0  0  0  0  0  0  0  0  0  0  0  0
   -0.1102   -4.2632  -21.5589 C   0  0  0  0  0  0  0  0  0  0  0  0
   -3.1611   -2.2231  -20.6257 C   0  0  0  0  0  0  0  0  0  0  0  0
   -4.1462   -2.9842  -20.2665 N   0  0  0  0  0  0  0  0  0  0  0  0
   -5.2567   -2.2087  -19.9141 O   0  0  0  0  0  0  0  0  0  0  0  0
   -3.1523   -0.7127  -20.6788 C   0  0  0  0  0  0  0  0  0  0  0  0
   -1.7329   -0.3344  -21.1247 C   0  0  0  0  0  0  0  0  0  0  0  0
   -5.9099   -2.8850  -19.6558 H   0  0  0  0  0  0  0  0  0  0  0  0
    4.7152   -3.4710  -25.6353 C   0  0  0  0  0  0  0  0  0  0  0  0
    5.7199   -3.9076  -26.6971 C   0  0  0  0  0  0  0  0  0  0  0  0
    7.0891   -3.7994  -26.2060 N   0  0  0  0  0  0  0  0  0  0  0  0
    7.3057   -4.6281  -25.0228 C   0  0  0  0  0  0  0  0  0  0  0  0
    6.3681   -4.2253  -23.8923 C   0  0  0  0  0  0  0  0  0  0  0  0
    4.8955   -4.2717  -24.3377 C   0  0  0  0  0  0  0  0  0  0  0  0
    7.7420   -4.0760  -26.9397 H   0  0  0  0  0  0  0  0  0  0  0  0
    3.3857   -2.3540  -20.1520 C   0  0  0  0  0  0  0  0  0  0  0  0
    2.3682   -2.5440  -19.2189 C   0  0  0  0  0  0  0  0  0  0  0  0
    2.5154   -1.9663  -17.9705 C   0  0  0  0  0  0  0  0  0  0  0  0
    3.5824   -1.2212  -17.6061 N   0  0  0  0  0  0  0  0  0  0  0  0
    4.5433   -1.0378  -18.5370 C   0  0  0  0  0  0  0  0  0  0  0  0
    4.4948   -1.5800  -19.8085 C   0  0  0  0  0  0  0  0  0  0  0  0
 18 19  1  0  0  0
 19 20  1  0  0  0
 20 21  1  0  0  0
 21 22  1  0  0  0
 22 23  1  0  0  0
 18 23  1  0  0  0
 23  1  1  0  0  0
  1  2  1  0  0  0
  2  3  2  0  0  0
  3  4  1  0  0  0
  4  5  2  0  0  0
  1  5  1  0  0  0
  4 25  1  0  0  0
 25 26  2  0  0  0
 26 27  1  0  0  0
 27 28  2  0  0  0
 28 29  1  0  0  0
 29 30  2  0  0  0
 25 30  1  0  0  0
  3  6  1  0  0  0
  6  7  2  0  0  0
  7  8  1  0  0  0
  8  9  2  0  0  0
  9 10  1  0  0  0
 10 11  2  0  0  0
  6 11  1  0  0  0
  9 12  1  0  0  0
 12 13  2  0  0  0
 13 14  1  0  0  0
 12 15  1  0  0  0
 15 16  1  0  0  0
  8 16  1  0  0  0
 20 24  1  0  0  0
 14 17  1  0  0  0
M  END
> <minimizedAffinity>
-10.38138

$$$$
mol_139592319_3


 31 35  0  0  0  0  0  0  0  0999 V2000
    1.1236   -3.1241  -22.2092 C   0  0  0  0  0  0  0  0  0  0  0  0
    1.3003   -3.7437  -23.4239 C   0  0  0  0  0  0  0  0  0  0  0  0
    2.6385   -3.9594  -23.5554 N   0  0  0  0  0  0  0  0  0  0  0  0
    3.3549   -3.4325  -22.5382 N   0  0  0  0  0  0  0  0  0  0  0  0
    2.4348   -2.9514  -21.6854 C   0  0  0  0  0  0  0  0  0  0  0  0
   -4.3547   -3.3661  -19.7303 C   0  0  0  0  0  0  0  0  0  0  0  0
   -3.5299   -4.2843  -20.6424 C   0  0  0  0  0  0  0  0  0  0  0  0
   -2.3625   -3.4002  -20.9471 C   0  0  0  0  0  0  0  0  0  0  0  0
   -2.6678   -2.0584  -20.6847 C   0  0  0  0  0  0  0  0  0  0  0  0
   -4.0834   -1.9144  -20.1857 C   0  0  0  0  0  0  0  0  0  0  0  0
   -1.7356   -1.0586  -20.9153 C   0  0  0  0  0  0  0  0  0  0  0  0
   -0.4808   -1.4187  -21.4135 C   0  0  0  0  0  0  0  0  0  0  0  0
   -0.1779   -2.7653  -21.6901 C   0  0  0  0  0  0  0  0  0  0  0  0
   -1.1309   -3.7670  -21.4601 C   0  0  0  0  0  0  0  0  0  0  0  0
   -5.0250   -1.5315  -21.2474 N   0  0  0  0  0  0  0  0  0  0  0  0
   -6.0691   -2.5465  -21.2521 O   0  0  0  0  0  0  0  0  0  0  0  0
   -5.5364   -0.6982  -20.9427 H   0  0  0  0  0  0  0  0  0  0  0  0
   -6.0827   -2.8162  -22.1910 H   0  0  0  0  0  0  0  0  0  0  0  0
    3.3370   -4.7054  -24.6018 C   0  0  0  0  0  0  0  0  0  0  0  0
    2.6032   -5.9815  -25.0266 C   0  0  0  0  0  0  0  0  0  0  0  0
    2.8933   -7.1682  -24.1141 C   0  0  0  0  0  0  0  0  0  0  0  0
    4.3288   -7.3832  -23.9550 N   0  0  0  0  0  0  0  0  0  0  0  0
    5.0137   -6.2199  -23.4002 C   0  0  0  0  0  0  0  0  0  0  0  0
    4.8099   -4.9785  -24.2641 C   0  0  0  0  0  0  0  0  0  0  0  0
    4.4841   -8.1890  -23.3473 H   0  0  0  0  0  0  0  0  0  0  0  0
    2.8129   -2.3602  -20.4072 C   0  0  0  0  0  0  0  0  0  0  0  0
    3.9193   -1.5130  -20.3200 C   0  0  0  0  0  0  0  0  0  0  0  0
    4.2675   -1.0137  -19.0775 C   0  0  0  0  0  0  0  0  0  0  0  0
    3.5995   -1.3001  -17.9401 N   0  0  0  0  0  0  0  0  0  0  0  0
    2.5250   -2.1115  -18.0545 C   0  0  0  0  0  0  0  0  0  0  0  0
    2.0922   -2.6561  -19.2512 C   0  0  0  0  0  0  0  0  0  0  0  0
  6  7  1  0  0  0
  7  8  1  0  0  0
  8  9  2  0  0  0
  9 10  1  0  0  0
  6 10  1  0  0  0
 10 15  1  0  0  0
 15 16  1  0  0  0
  9 11  1  0  0  0
 11 12  2  0  0  0
 12 13  1  0  0  0
 13 14  2  0  0  0
  8 14  1  0  0  0
 13  1  1  0  0  0
  1  2  2  0  0  0
  2  3  1  0  0  0
  3  4  1  0  0  0
  4  5  2  0  0  0
  1  5  1  0  0  0
  5 26  1  0  0  0
 26 27  2  0  0  0
 27 28  1  0  0  0
 28 29  2  0  0  0
 29 30  1  0  0  0
 30 31  2  0  0  0
 26 31  1  0  0  0
  3 19  1  0  0  0
 19 20  1  0  0  0
 20 21  1  0  0  0
 21 22  1  0  0  0
 22 23  1  0  0  0
 23 24  1  0  0  0
 19 24  1  0  0  0
 15 17  1  0  0  0
 16 18  1  0  0  0
 22 25  1  0  0  0
M  END
> <minimizedAffinity>
-10.27597

$$$$
mol_139592319_3


 31 35  0  0  0  0  0  0  0  0999 V2000
    4.2357   -3.2445  -21.4382 C   0  0  0  0  0  0  0  0  0  0  0  0
    5.2677   -3.2286  -20.5298 C   0  0  0  0  0  0  0  0  0  0  0  0
    6.3319   -3.8145  -21.1453 N   0  0  0  0  0  0  0  0  0  0  0  0
    6.0269   -4.2957  -22.3704 N   0  0  0  0  0  0  0  0  0  0  0  0
    4.7543   -3.9180  -22.5787 C   0  0  0  0  0  0  0  0  0  0  0  0
   -1.7035   -2.4099  -20.9445 C   0  0  0  0  0  0  0  0  0  0  0  0
   -0.7820   -3.1137  -21.9498 C   0  0  0  0  0  0  0  0  0  0  0  0
    0.5599   -2.6874  -21.4448 C   0  0  0  0  0  0  0  0  0  0  0  0
    0.4504   -1.5602  -20.6203 C   0  0  0  0  0  0  0  0  0  0  0  0
   -0.9853   -1.1147  -20.5027 C   0  0  0  0  0  0  0  0  0  0  0  0
    1.5757   -0.9797  -20.0559 C   0  0  0  0  0  0  0  0  0  0  0  0
    2.8245   -1.5459  -20.3252 C   0  0  0  0  0  0  0  0  0  0  0  0
    2.9366   -2.6705  -21.1644 C   0  0  0  0  0  0  0  0  0  0  0  0
    1.7927   -3.2445  -21.7357 C   0  0  0  0  0  0  0  0  0  0  0  0
   -1.3165   -0.0136  -21.4182 N   0  0  0  0  0  0  0  0  0  0  0  0
   -1.6882    1.1169  -20.5790 O   0  0  0  0  0  0  0  0  0  0  0  0
   -0.4509    0.3176  -21.8541 H   0  0  0  0  0  0  0  0  0  0  0  0
   -2.5550    1.3681  -20.9532 H   0  0  0  0  0  0  0  0  0  0  0  0
    7.7084   -3.9256  -20.6632 C   0  0  0  0  0  0  0  0  0  0  0  0
    7.8420   -4.8004  -19.4125 C   0  0  0  0  0  0  0  0  0  0  0  0
    7.5476   -4.0443  -18.1215 C   0  0  0  0  0  0  0  0  0  0  0  0
    8.3370   -2.8196  -18.0261 N   0  0  0  0  0  0  0  0  0  0  0  0
    8.0958   -1.9067  -19.1390 C   0  0  0  0  0  0  0  0  0  0  0  0
    8.3943   -2.5634  -20.4839 C   0  0  0  0  0  0  0  0  0  0  0  0
    8.1211   -2.3464  -17.1474 H   0  0  0  0  0  0  0  0  0  0  0  0
    4.0739   -4.1881  -23.8398 C   0  0  0  0  0  0  0  0  0  0  0  0
    3.9144   -3.1755  -24.7879 C   0  0  0  0  0  0  0  0  0  0  0  0
    3.2208   -3.4668  -25.9490 C   0  0  0  0  0  0  0  0  0  0  0  0
    2.6852   -4.6759  -26.2195 N   0  0  0  0  0  0  0  0  0  0  0  0
    2.8654   -5.6415  -25.2915 C   0  0  0  0  0  0  0  0  0  0  0  0
    3.5489   -5.4524  -24.1026 C   0  0  0  0  0  0  0  0  0  0  0  0
  6  7  1  0  0  0
  7  8  1  0  0  0
  8  9  2  0  0  0
  9 10  1  0  0  0
  6 10  1  0  0  0
 10 15  1  0  0  0
 15 16  1  0  0  0
  9 11  1  0  0  0
 11 12  2  0  0  0
 12 13  1  0  0  0
 13 14  2  0  0  0
  8 14  1  0  0  0
 13  1  1  0  0  0
  1  2  2  0  0  0
  2  3  1  0  0  0
  3  4  1  0  0  0
  4  5  2  0  0  0
  1  5  1  0  0  0
  5 26  1  0  0  0
 26 27  2  0  0  0
 27 28  1  0  0  0
 28 29  2  0  0  0
 29 30  1  0  0  0
 30 31  2  0  0  0
 26 31  1  0  0  0
  3 19  1  0  0  0
 19 20  1  0  0  0
 20 21  1  0  0  0
 21 22  1  0  0  0
 22 23  1  0  0  0
 23 24  1  0  0  0
 19 24  1  0  0  0
 15 17  1  0  0  0
 16 18  1  0  0  0
 22 25  1  0  0  0
M  END
> <minimizedAffinity>
-10.23594

$$$$
mol_139592319_3


 31 35  0  0  0  0  0  0  0  0999 V2000
    2.4974   -2.6396  -21.2518 C   0  0  0  0  0  0  0  0  0  0  0  0
    3.2853   -2.1145  -20.2548 C   0  0  0  0  0  0  0  0  0  0  0  0
    4.5719   -2.2068  -20.6914 N   0  0  0  0  0  0  0  0  0  0  0  0
    4.6766   -2.8470  -21.8767 N   0  0  0  0  0  0  0  0  0  0  0  0
    3.4078   -3.0832  -22.2508 C   0  0  0  0  0  0  0  0  0  0  0  0
   -3.3144   -1.0804  -21.1739 C   0  0  0  0  0  0  0  0  0  0  0  0
   -2.0077   -0.4393  -20.6873 C   0  0  0  0  0  0  0  0  0  0  0  0
   -1.0444   -1.5607  -20.9153 C   0  0  0  0  0  0  0  0  0  0  0  0
   -1.7178   -2.7830  -21.0381 C   0  0  0  0  0  0  0  0  0  0  0  0
   -3.2068   -2.5961  -20.8919 C   0  0  0  0  0  0  0  0  0  0  0  0
   -1.0185   -3.9637  -21.2348 C   0  0  0  0  0  0  0  0  0  0  0  0
    0.3756   -3.9083  -21.3112 C   0  0  0  0  0  0  0  0  0  0  0  0
    1.0538   -2.6824  -21.1746 C   0  0  0  0  0  0  0  0  0  0  0  0
    0.3368   -1.4958  -20.9684 C   0  0  0  0  0  0  0  0  0  0  0  0
   -3.6876   -2.8950  -19.5355 N   0  0  0  0  0  0  0  0  0  0  0  0
   -5.1273   -2.6775  -19.5558 O   0  0  0  0  0  0  0  0  0  0  0  0
   -3.6249   -3.9059  -19.3843 H   0  0  0  0  0  0  0  0  0  0  0  0
   -5.2497   -2.0733  -18.7979 H   0  0  0  0  0  0  0  0  0  0  0  0
    5.7807   -1.6694  -20.0675 C   0  0  0  0  0  0  0  0  0  0  0  0
    7.0464   -1.9079  -20.8974 C   0  0  0  0  0  0  0  0  0  0  0  0
    7.6549   -3.2880  -20.6741 C   0  0  0  0  0  0  0  0  0  0  0  0
    7.8660   -3.5570  -19.2544 N   0  0  0  0  0  0  0  0  0  0  0  0
    6.6318   -3.4861  -18.4788 C   0  0  0  0  0  0  0  0  0  0  0  0
    5.9582   -2.1232  -18.6112 C   0  0  0  0  0  0  0  0  0  0  0  0
    8.2821   -4.4830  -19.1445 H   0  0  0  0  0  0  0  0  0  0  0  0
    3.0919   -3.7022  -23.5327 C   0  0  0  0  0  0  0  0  0  0  0  0
    2.4799   -4.9563  -23.5802 C   0  0  0  0  0  0  0  0  0  0  0  0
    2.2426   -5.5243  -24.8193 C   0  0  0  0  0  0  0  0  0  0  0  0
    2.5709   -4.9365  -25.9892 N   0  0  0  0  0  0  0  0  0  0  0  0
    3.1498   -3.7177  -25.9152 C   0  0  0  0  0  0  0  0  0  0  0  0
    3.4228   -3.0630  -24.7265 C   0  0  0  0  0  0  0  0  0  0  0  0
  6  7  1  0  0  0
  7  8  1  0  0  0
  8  9  2  0  0  0
  9 10  1  0  0  0
  6 10  1  0  0  0
 10 15  1  0  0  0
 15 16  1  0  0  0
  9 11  1  0  0  0
 11 12  2  0  0  0
 12 13  1  0  0  0
 13 14  2  0  0  0
  8 14  1  0  0  0
 13  1  1  0  0  0
  1  2  2  0  0  0
  2  3  1  0  0  0
  3  4  1  0  0  0
  4  5  2  0  0  0
  1  5  1  0  0  0
  5 26  1  0  0  0
 26 27  2  0  0  0
 27 28  1  0  0  0
 28 29  2  0  0  0
 29 30  1  0  0  0
 30 31  2  0  0  0
 26 31  1  0  0  0
  3 19  1  0  0  0
 19 20  1  0  0  0
 20 21  1  0  0  0
 21 22  1  0  0  0
 22 23  1  0  0  0
 23 24  1  0  0  0
 19 24  1  0  0  0
 15 17  1  0  0  0
 16 18  1  0  0  0
 22 25  1  0  0  0
M  END
> <minimizedAffinity>
-10.10816

$$$$
mol_135927350_4


 31 35  0  0  0  0  0  0  0  0999 V2000
    5.2747   -2.4478  -21.0424 N   0  0  0  0  0  0  0  0  0  0  0  0
    3.8554   -2.1501  -20.6546 C   0  0  0  0  0  0  0  0  0  0  0  0
    3.0174   -2.8178  -21.7086 C   0  0  0  0  0  0  0  0  0  0  0  0
    3.8406   -3.2580  -22.6718 C   0  0  0  0  0  0  0  0  0  0  0  0
    5.1459   -3.0308  -22.3211 N   0  0  0  0  0  0  0  0  0  0  0  0
    5.9122   -3.1580  -22.9754 H   0  0  0  0  0  0  0  0  0  0  0  0
    1.5757   -2.9918  -21.5887 C   0  0  0  0  0  0  0  0  0  0  0  0
    0.7903   -1.8955  -21.1899 C   0  0  0  0  0  0  0  0  0  0  0  0
   -0.5783   -2.0579  -21.0576 C   0  0  0  0  0  0  0  0  0  0  0  0
   -1.1535   -3.2942  -21.3148 C   0  0  0  0  0  0  0  0  0  0  0  0
   -0.4151   -4.3922  -21.7208 C   0  0  0  0  0  0  0  0  0  0  0  0
    0.9666   -4.2309  -21.8658 C   0  0  0  0  0  0  0  0  0  0  0  0
   -2.5821   -3.1851  -21.0691 C   0  0  0  0  0  0  0  0  0  0  0  0
   -3.4052   -4.1768  -21.1956 N   0  0  0  0  0  0  0  0  0  0  0  0
   -4.7077   -3.7722  -20.8821 O   0  0  0  0  0  0  0  0  0  0  0  0
   -2.9172   -1.7723  -20.6491 C   0  0  0  0  0  0  0  0  0  0  0  0
   -1.5763   -1.0245  -20.6461 C   0  0  0  0  0  0  0  0  0  0  0  0
   -5.2137   -4.5989  -20.9886 H   0  0  0  0  0  0  0  0  0  0  0  0
    7.2924   -3.9769  -20.5374 C   0  0  0  0  0  0  0  0  0  0  0  0
    7.8446   -4.9316  -19.4821 C   0  0  0  0  0  0  0  0  0  0  0  0
    7.9468   -4.2813  -18.1779 N   0  0  0  0  0  0  0  0  0  0  0  0
    6.6427   -3.8069  -17.7166 C   0  0  0  0  0  0  0  0  0  0  0  0
    6.0274   -2.8094  -18.6962 C   0  0  0  0  0  0  0  0  0  0  0  0
    5.9198   -3.4137  -20.1092 C   0  0  0  0  0  0  0  0  0  0  0  0
    8.3257   -4.9419  -17.4991 H   0  0  0  0  0  0  0  0  0  0  0  0
    3.5034   -3.9624  -23.9072 C   0  0  0  0  0  0  0  0  0  0  0  0
    3.3469   -3.2562  -25.1008 C   0  0  0  0  0  0  0  0  0  0  0  0
    3.0550   -3.9661  -26.2531 C   0  0  0  0  0  0  0  0  0  0  0  0
    2.9018   -5.3069  -26.2912 N   0  0  0  0  0  0  0  0  0  0  0  0
    3.0485   -5.9674  -25.1228 C   0  0  0  0  0  0  0  0  0  0  0  0
    3.3455   -5.3490  -23.9204 C   0  0  0  0  0  0  0  0  0  0  0  0
 19 20  1  0  0  0
 20 21  1  0  0  0
 21 22  1  0  0  0
 22 23  1  0  0  0
 23 24  1  0  0  0
 19 24  1  0  0  0
 24  1  1  0  0  0
  1  2  1  0  0  0
  2  3  1  0  0  0
  3  4  2  0  0  0
  4  5  1  0  0  0
  1  5  1  0  0  0
  4 26  1  0  0  0
 26 27  2  0  0  0
 27 28  1  0  0  0
 28 29  2  0  0  0
 29 30  1  0  0  0
 30 31  2  0  0  0
 26 31  1  0  0  0
  3  7  1  0  0  0
  7  8  2  0  0  0
  8  9  1  0  0  0
  9 10  2  0  0  0
 10 11  1  0  0  0
 11 12  2  0  0  0
  7 12  1  0  0  0
 10 13  1  0  0  0
 13 14  2  0  0  0
 14 15  1  0  0  0
 13 16  1  0  0  0
 16 17  1  0  0  0
  9 17  1  0  0  0
 21 25  1  0  0  0
  5  6  1  0  0  0
 15 18  1  0  0  0
M  END
> <minimizedAffinity>
-10.40897

$$$$
mol_135927350_4


 31 35  0  0  0  0  0  0  0  0999 V2000
    5.0737   -1.2247  -20.9189 N   0  0  0  0  0  0  0  0  0  0  0  0
    3.6104   -1.1237  -20.5993 C   0  0  0  0  0  0  0  0  0  0  0  0
    2.9382   -2.0646  -21.5594 C   0  0  0  0  0  0  0  0  0  0  0  0
    3.8606   -2.4864  -22.4371 C   0  0  0  0  0  0  0  0  0  0  0  0
    5.0946   -1.9925  -22.1029 N   0  0  0  0  0  0  0  0  0  0  0  0
    5.8965   -2.0760  -22.7205 H   0  0  0  0  0  0  0  0  0  0  0  0
    1.5423   -2.4647  -21.4377 C   0  0  0  0  0  0  0  0  0  0  0  0
    0.5721   -1.4774  -21.1890 C   0  0  0  0  0  0  0  0  0  0  0  0
   -0.7540   -1.8523  -21.0555 C   0  0  0  0  0  0  0  0  0  0  0  0
   -1.1060   -3.1900  -21.1641 C   0  0  0  0  0  0  0  0  0  0  0  0
   -0.1817   -4.1879  -21.4202 C   0  0  0  0  0  0  0  0  0  0  0  0
    1.1579   -3.8134  -21.5661 C   0  0  0  0  0  0  0  0  0  0  0  0
   -2.5404   -3.2959  -20.9526 C   0  0  0  0  0  0  0  0  0  0  0  0
   -3.1820   -4.4207  -20.9653 N   0  0  0  0  0  0  0  0  0  0  0  0
   -4.5436   -4.2079  -20.7218 O   0  0  0  0  0  0  0  0  0  0  0  0
   -3.1202   -1.9201  -20.7166 C   0  0  0  0  0  0  0  0  0  0  0  0
   -1.9235   -0.9610  -20.7892 C   0  0  0  0  0  0  0  0  0  0  0  0
   -4.9009   -5.1151  -20.7310 H   0  0  0  0  0  0  0  0  0  0  0  0
    5.5510   -3.4351  -19.6738 C   0  0  0  0  0  0  0  0  0  0  0  0
    6.4121   -4.0283  -18.5617 C   0  0  0  0  0  0  0  0  0  0  0  0
    7.8336   -3.8040  -18.8126 N   0  0  0  0  0  0  0  0  0  0  0  0
    8.1387   -2.3768  -18.9046 C   0  0  0  0  0  0  0  0  0  0  0  0
    7.3481   -1.7028  -20.0244 C   0  0  0  0  0  0  0  0  0  0  0  0
    5.8342   -1.9271  -19.8475 C   0  0  0  0  0  0  0  0  0  0  0  0
    8.3801   -4.2186  -18.0575 H   0  0  0  0  0  0  0  0  0  0  0  0
    3.6949   -3.4024  -23.5639 C   0  0  0  0  0  0  0  0  0  0  0  0
    3.5846   -4.7763  -23.3448 C   0  0  0  0  0  0  0  0  0  0  0  0
    3.4008   -5.6053  -24.4384 C   0  0  0  0  0  0  0  0  0  0  0  0
    3.3311   -5.1643  -25.7124 N   0  0  0  0  0  0  0  0  0  0  0  0
    3.4499   -3.8326  -25.9004 C   0  0  0  0  0  0  0  0  0  0  0  0
    3.6304   -2.9227  -24.8729 C   0  0  0  0  0  0  0  0  0  0  0  0
 19 20  1  0  0  0
 20 21  1  0  0  0
 21 22  1  0  0  0
 22 23  1  0  0  0
 23 24  1  0  0  0
 19 24  1  0  0  0
 24  1  1  0  0  0
  1  2  1  0  0  0
  2  3  1  0  0  0
  3  4  2  0  0  0
  4  5  1  0  0  0
  1  5  1  0  0  0
  4 26  1  0  0  0
 26 27  2  0  0  0
 27 28  1  0  0  0
 28 29  2  0  0  0
 29 30  1  0  0  0
 30 31  2  0  0  0
 26 31  1  0  0  0
  3  7  1  0  0  0
  7  8  2  0  0  0
  8  9  1  0  0  0
  9 10  2  0  0  0
 10 11  1  0  0  0
 11 12  2  0  0  0
  7 12  1  0  0  0
 10 13  1  0  0  0
 13 14  2  0  0  0
 14 15  1  0  0  0
 13 16  1  0  0  0
 16 17  1  0  0  0
  9 17  1  0  0  0
 21 25  1  0  0  0
  5  6  1  0  0  0
 15 18  1  0  0  0
M  END
> <minimizedAffinity>
-9.85500

$$$$
mol_135927350_4


 31 35  0  0  0  0  0  0  0  0999 V2000
   -1.3152   -1.2814  -21.2752 N   0  0  0  0  0  0  0  0  0  0  0  0
   -0.6999   -2.1295  -22.3501 C   0  0  0  0  0  0  0  0  0  0  0  0
    0.6530   -2.5096  -21.8170 C   0  0  0  0  0  0  0  0  0  0  0  0
    0.8634   -1.8115  -20.6912 C   0  0  0  0  0  0  0  0  0  0  0  0
   -0.2485   -1.0753  -20.3744 N   0  0  0  0  0  0  0  0  0  0  0  0
   -0.2409   -0.3709  -19.6429 H   0  0  0  0  0  0  0  0  0  0  0  0
    1.4925   -3.5314  -22.4290 C   0  0  0  0  0  0  0  0  0  0  0  0
    2.8721   -3.2901  -22.5564 C   0  0  0  0  0  0  0  0  0  0  0  0
    3.6733   -4.2495  -23.1520 C   0  0  0  0  0  0  0  0  0  0  0  0
    3.1072   -5.4281  -23.6164 C   0  0  0  0  0  0  0  0  0  0  0  0
    1.7566   -5.7062  -23.4979 C   0  0  0  0  0  0  0  0  0  0  0  0
    0.9444   -4.7448  -22.8879 C   0  0  0  0  0  0  0  0  0  0  0  0
    4.1630   -6.2281  -24.2154 C   0  0  0  0  0  0  0  0  0  0  0  0
    3.9579   -7.3821  -24.7662 N   0  0  0  0  0  0  0  0  0  0  0  0
    5.1571   -7.9050  -25.2630 O   0  0  0  0  0  0  0  0  0  0  0  0
    5.4815   -5.4993  -24.0936 C   0  0  0  0  0  0  0  0  0  0  0  0
    5.1485   -4.1810  -23.3807 C   0  0  0  0  0  0  0  0  0  0  0  0
    4.8670   -8.7438  -25.6666 H   0  0  0  0  0  0  0  0  0  0  0  0
   -3.8488   -1.3977  -20.7941 C   0  0  0  0  0  0  0  0  0  0  0  0
   -4.8956   -2.2211  -20.0483 C   0  0  0  0  0  0  0  0  0  0  0  0
   -4.8573   -3.6239  -20.4545 N   0  0  0  0  0  0  0  0  0  0  0  0
   -3.5471   -4.2180  -20.1915 C   0  0  0  0  0  0  0  0  0  0  0  0
   -2.4346   -3.4795  -20.9333 C   0  0  0  0  0  0  0  0  0  0  0  0
   -2.4342   -1.9795  -20.5821 C   0  0  0  0  0  0  0  0  0  0  0  0
   -5.5725   -4.1433  -19.9453 H   0  0  0  0  0  0  0  0  0  0  0  0
    2.0326   -1.8268  -19.8144 C   0  0  0  0  0  0  0  0  0  0  0  0
    3.1673   -1.0822  -20.1398 C   0  0  0  0  0  0  0  0  0  0  0  0
    4.2419   -1.1031  -19.2670 C   0  0  0  0  0  0  0  0  0  0  0  0
    4.2633   -1.8119  -18.1183 N   0  0  0  0  0  0  0  0  0  0  0  0
    3.1582   -2.5318  -17.8293 C   0  0  0  0  0  0  0  0  0  0  0  0
    2.0324   -2.5714  -18.6340 C   0  0  0  0  0  0  0  0  0  0  0  0
 19 20  1  0  0  0
 20 21  1  0  0  0
 21 22  1  0  0  0
 22 23  1  0  0  0
 23 24  1  0  0  0
 19 24  1  0  0  0
 24  1  1  0  0  0
  1  2  1  0  0  0
  2  3  1  0  0  0
  3  4  2  0  0  0
  4  5  1  0  0  0
  1  5  1  0  0  0
  4 26  1  0  0  0
 26 27  2  0  0  0
 27 28  1  0  0  0
 28 29  2  0  0  0
 29 30  1  0  0  0
 30 31  2  0  0  0
 26 31  1  0  0  0
  3  7  1  0  0  0
  7  8  2  0  0  0
  8  9  1  0  0  0
  9 10  2  0  0  0
 10 11  1  0  0  0
 11 12  2  0  0  0
  7 12  1  0  0  0
 10 13  1  0  0  0
 13 14  2  0  0  0
 14 15  1  0  0  0
 13 16  1  0  0  0
 16 17  1  0  0  0
  9 17  1  0  0  0
 21 25  1  0  0  0
  5  6  1  0  0  0
 15 18  1  0  0  0
M  END
> <minimizedAffinity>
-9.76021

$$$$
mol_91896025_5


 30 34  0  0  0  0  0  0  0  0999 V2000
    3.0191   -3.7202  -23.4680 N   0  0  0  0  0  0  0  0  0  0  0  0
    1.6534   -3.6832  -23.3876 C   0  0  0  0  0  0  0  0  0  0  0  0
    1.3588   -3.0959  -22.1769 C   0  0  0  0  0  0  0  0  0  0  0  0
    2.6243   -2.8667  -21.5585 C   0  0  0  0  0  0  0  0  0  0  0  0
    3.6251   -3.2359  -22.3713 N   0  0  0  0  0  0  0  0  0  0  0  0
    0.0213   -2.7558  -21.7333 C   0  0  0  0  0  0  0  0  0  0  0  0
   -0.9388   -3.7522  -21.5175 C   0  0  0  0  0  0  0  0  0  0  0  0
   -2.1688   -3.3782  -20.9977 C   0  0  0  0  0  0  0  0  0  0  0  0
   -2.4659   -2.0360  -20.7192 C   0  0  0  0  0  0  0  0  0  0  0  0
   -1.5366   -1.0374  -20.9584 C   0  0  0  0  0  0  0  0  0  0  0  0
   -0.2887   -1.4052  -21.4646 C   0  0  0  0  0  0  0  0  0  0  0  0
   -3.8599   -1.8954  -20.1701 C   0  0  0  0  0  0  0  0  0  0  0  0
   -4.1398   -3.3464  -19.7317 C   0  0  0  0  0  0  0  0  0  0  0  0
   -3.3432   -4.2532  -20.6840 C   0  0  0  0  0  0  0  0  0  0  0  0
   -4.7838   -1.3504  -21.2159 N   0  0  0  0  0  0  0  0  0  0  0  0
   -5.8197   -2.0061  -21.3683 O   0  0  0  0  0  0  0  0  0  0  0  0
    2.5687   -6.3565  -25.3382 C   0  0  0  0  0  0  0  0  0  0  0  0
    2.9758   -4.9240  -25.7010 C   0  0  0  0  0  0  0  0  0  0  0  0
    3.7981   -4.2071  -24.6076 C   0  0  0  0  0  0  0  0  0  0  0  0
    4.9680   -5.0899  -24.1521 C   0  0  0  0  0  0  0  0  0  0  0  0
    4.5033   -6.4779  -23.7174 C   0  0  0  0  0  0  0  0  0  0  0  0
    3.7454   -7.1846  -24.8381 C   0  0  0  0  0  0  0  0  0  0  0  0
    5.6399   -7.2542  -23.3473 O   0  0  0  0  0  0  0  0  0  0  0  0
    6.1705   -7.4225  -24.1445 H   0  0  0  0  0  0  0  0  0  0  0  0
    2.8958   -2.3013  -20.2401 C   0  0  0  0  0  0  0  0  0  0  0  0
    2.0466   -2.5770  -19.1686 C   0  0  0  0  0  0  0  0  0  0  0  0
    2.3668   -2.0541  -17.9280 C   0  0  0  0  0  0  0  0  0  0  0  0
    3.4514   -1.2837  -17.6926 N   0  0  0  0  0  0  0  0  0  0  0  0
    4.2459   -1.0148  -18.7499 C   0  0  0  0  0  0  0  0  0  0  0  0
    4.0139   -1.4925  -20.0276 C   0  0  0  0  0  0  0  0  0  0  0  0
 17 18  1  0  0  0
 18 19  1  0  0  0
 19 20  1  0  0  0
 20 21  1  0  0  0
 21 22  1  0  0  0
 17 22  1  0  0  0
 21 23  1  0  0  0
 19  1  1  0  0  0
  1  2  1  0  0  0
  2  3  2  0  0  0
  3  4  1  0  0  0
  4  5  2  0  0  0
  1  5  1  0  0  0
  4 25  1  0  0  0
 25 26  2  0  0  0
 26 27  1  0  0  0
 27 28  2  0  0  0
 28 29  1  0  0  0
 29 30  2  0  0  0
 25 30  1  0  0  0
  3  6  1  0  0  0
  6  7  2  0  0  0
  7  8  1  0  0  0
  8  9  2  0  0  0
  9 10  1  0  0  0
 10 11  2  0  0  0
  6 11  1  0  0  0
  9 12  1  0  0  0
 12 13  1  0  0  0
 13 14  1  0  0  0
  8 14  1  0  0  0
 12 15  1  0  0  0
 15 16  2  0  0  0
 23 24  1  0  0  0
M  END
> <minimizedAffinity>
-10.59431

$$$$
mol_91896025_5


 30 34  0  0  0  0  0  0  0  0999 V2000
    3.2252   -3.7399  -23.4075 N   0  0  0  0  0  0  0  0  0  0  0  0
    1.8647   -3.8467  -23.3045 C   0  0  0  0  0  0  0  0  0  0  0  0
    1.5285   -3.2792  -22.0952 C   0  0  0  0  0  0  0  0  0  0  0  0
    2.7721   -2.9099  -21.5006 C   0  0  0  0  0  0  0  0  0  0  0  0
    3.7936   -3.1809  -22.3262 N   0  0  0  0  0  0  0  0  0  0  0  0
    0.1696   -3.0773  -21.6327 C   0  0  0  0  0  0  0  0  0  0  0  0
   -0.3379   -1.7869  -21.4364 C   0  0  0  0  0  0  0  0  0  0  0  0
   -1.6740   -1.6518  -21.0902 C   0  0  0  0  0  0  0  0  0  0  0  0
   -2.4980   -2.7723  -20.9093 C   0  0  0  0  0  0  0  0  0  0  0  0
   -2.0000   -4.0547  -21.0688 C   0  0  0  0  0  0  0  0  0  0  0  0
   -0.6610   -4.2014  -21.4351 C   0  0  0  0  0  0  0  0  0  0  0  0
   -3.8955   -2.3585  -20.5346 C   0  0  0  0  0  0  0  0  0  0  0  0
   -3.8848   -0.8840  -20.9836 C   0  0  0  0  0  0  0  0  0  0  0  0
   -2.4371   -0.3897  -20.8297 C   0  0  0  0  0  0  0  0  0  0  0  0
   -4.1359   -2.5836  -19.0731 N   0  0  0  0  0  0  0  0  0  0  0  0
   -4.8781   -3.5391  -18.8230 O   0  0  0  0  0  0  0  0  0  0  0  0
    2.8065   -6.2347  -25.4695 C   0  0  0  0  0  0  0  0  0  0  0  0
    3.2378   -4.7852  -25.7193 C   0  0  0  0  0  0  0  0  0  0  0  0
    4.0335   -4.1554  -24.5549 C   0  0  0  0  0  0  0  0  0  0  0  0
    5.1809   -5.0810  -24.1280 C   0  0  0  0  0  0  0  0  0  0  0  0
    4.6904   -6.4904  -23.8049 C   0  0  0  0  0  0  0  0  0  0  0  0
    3.9599   -7.1089  -24.9940 C   0  0  0  0  0  0  0  0  0  0  0  0
    5.8080   -7.3035  -23.4567 O   0  0  0  0  0  0  0  0  0  0  0  0
    6.3607   -7.4221  -24.2478 H   0  0  0  0  0  0  0  0  0  0  0  0
    3.0027   -2.3030  -20.1929 C   0  0  0  0  0  0  0  0  0  0  0  0
    2.0889   -2.4965  -19.1572 C   0  0  0  0  0  0  0  0  0  0  0  0
    2.3701   -1.9373  -17.9229 C   0  0  0  0  0  0  0  0  0  0  0  0
    3.4758   -1.2065  -17.6615 N   0  0  0  0  0  0  0  0  0  0  0  0
    4.3341   -1.0168  -18.6857 C   0  0  0  0  0  0  0  0  0  0  0  0
    4.1449   -1.5362  -19.9542 C   0  0  0  0  0  0  0  0  0  0  0  0
 17 18  1  0  0  0
 18 19  1  0  0  0
 19 20  1  0  0  0
 20 21  1  0  0  0
 21 22  1  0  0  0
 17 22  1  0  0  0
 21 23  1  0  0  0
 19  1  1  0  0  0
  1  2  1  0  0  0
  2  3  2  0  0  0
  3  4  1  0  0  0
  4  5  2  0  0  0
  1  5  1  0  0  0
  4 25  1  0  0  0
 25 26  2  0  0  0
 26 27  1  0  0  0
 27 28  2  0  0  0
 28 29  1  0  0  0
 29 30  2  0  0  0
 25 30  1  0  0  0
  3  6  1  0  0  0
  6  7  2  0  0  0
  7  8  1  0  0  0
  8  9  2  0  0  0
  9 10  1  0  0  0
 10 11  2  0  0  0
  6 11  1  0  0  0
  9 12  1  0  0  0
 12 13  1  0  0  0
 13 14  1  0  0  0
  8 14  1  0  0  0
 12 15  1  0  0  0
 15 16  2  0  0  0
 23 24  1  0  0  0
M  END
> <minimizedAffinity>
-10.46408

$$$$
mol_91896025_5


 30 34  0  0  0  0  0  0  0  0999 V2000
    4.6567   -2.7709  -20.1676 N   0  0  0  0  0  0  0  0  0  0  0  0
    3.3866   -2.4560  -19.7670 C   0  0  0  0  0  0  0  0  0  0  0  0
    2.5700   -2.7251  -20.8432 C   0  0  0  0  0  0  0  0  0  0  0  0
    3.4531   -3.1430  -21.8832 C   0  0  0  0  0  0  0  0  0  0  0  0
    4.7198   -3.1837  -21.4445 N   0  0  0  0  0  0  0  0  0  0  0  0
    1.1231   -2.6404  -20.8171 C   0  0  0  0  0  0  0  0  0  0  0  0
    0.4785   -1.4059  -20.6704 C   0  0  0  0  0  0  0  0  0  0  0  0
   -0.9054   -1.3731  -20.7532 C   0  0  0  0  0  0  0  0  0  0  0  0
   -1.6529   -2.5437  -20.9489 C   0  0  0  0  0  0  0  0  0  0  0  0
   -1.0293   -3.7750  -21.0632 C   0  0  0  0  0  0  0  0  0  0  0  0
    0.3646   -3.8169  -20.9995 C   0  0  0  0  0  0  0  0  0  0  0  0
   -3.1261   -2.2404  -20.9980 C   0  0  0  0  0  0  0  0  0  0  0  0
   -3.0946   -0.7252  -21.2791 C   0  0  0  0  0  0  0  0  0  0  0  0
   -1.8098   -0.1857  -20.6293 C   0  0  0  0  0  0  0  0  0  0  0  0
   -3.7880   -2.6427  -19.7156 N   0  0  0  0  0  0  0  0  0  0  0  0
   -4.6055   -3.5614  -19.8339 O   0  0  0  0  0  0  0  0  0  0  0  0
    7.7182   -1.9798  -20.9753 C   0  0  0  0  0  0  0  0  0  0  0  0
    6.8764   -1.6161  -19.7471 C   0  0  0  0  0  0  0  0  0  0  0  0
    5.8596   -2.7037  -19.3362 C   0  0  0  0  0  0  0  0  0  0  0  0
    6.5495   -4.0709  -19.2348 C   0  0  0  0  0  0  0  0  0  0  0  0
    7.3027   -4.4291  -20.5138 C   0  0  0  0  0  0  0  0  0  0  0  0
    8.3407   -3.3655  -20.8617 C   0  0  0  0  0  0  0  0  0  0  0  0
    7.9497   -5.6865  -20.3359 O   0  0  0  0  0  0  0  0  0  0  0  0
    8.6515   -5.5802  -19.6714 H   0  0  0  0  0  0  0  0  0  0  0  0
    3.1208   -3.5110  -23.2565 C   0  0  0  0  0  0  0  0  0  0  0  0
    3.7203   -2.8473  -24.3267 C   0  0  0  0  0  0  0  0  0  0  0  0
    3.4070   -3.2583  -25.6104 C   0  0  0  0  0  0  0  0  0  0  0  0
    2.5468   -4.2615  -25.8911 N   0  0  0  0  0  0  0  0  0  0  0  0
    1.9646   -4.8741  -24.8388 C   0  0  0  0  0  0  0  0  0  0  0  0
    2.2140   -4.5396  -23.5195 C   0  0  0  0  0  0  0  0  0  0  0  0
 17 18  1  0  0  0
 18 19  1  0  0  0
 19 20  1  0  0  0
 20 21  1  0  0  0
 21 22  1  0  0  0
 17 22  1  0  0  0
 21 23  1  0  0  0
 19  1  1  0  0  0
  1  2  1  0  0  0
  2  3  2  0  0  0
  3  4  1  0  0  0
  4  5  2  0  0  0
  1  5  1  0  0  0
  4 25  1  0  0  0
 25 26  2  0  0  0
 26 27  1  0  0  0
 27 28  2  0  0  0
 28 29  1  0  0  0
 29 30  2  0  0  0
 25 30  1  0  0  0
  3  6  1  0  0  0
  6  7  2  0  0  0
  7  8  1  0  0  0
  8  9  2  0  0  0
  9 10  1  0  0  0
 10 11  2  0  0  0
  6 11  1  0  0  0
  9 12  1  0  0  0
 12 13  1  0  0  0
 13 14  1  0  0  0
  8 14  1  0  0  0
 12 15  1  0  0  0
 15 16  2  0  0  0
 23 24  1  0  0  0
M  END
> <minimizedAffinity>
-9.89320

$$$$
mol_91896028_6


 27 30  0  0  0  0  0  0  0  0999 V2000
    1.2170   -3.2528  -22.0419 C   0  0  0  0  0  0  0  0  0  0  0  0
    1.4618   -3.9497  -23.2025 C   0  0  0  0  0  0  0  0  0  0  0  0
    2.8135   -4.1105  -23.2661 N   0  0  0  0  0  0  0  0  0  0  0  0
    3.4688   -3.5831  -22.2128 N   0  0  0  0  0  0  0  0  0  0  0  0
    2.5010   -3.0368  -21.4571 C   0  0  0  0  0  0  0  0  0  0  0  0
   -4.3373   -3.1624  -19.6963 C   0  0  0  0  0  0  0  0  0  0  0  0
   -3.5271   -4.1618  -20.5381 C   0  0  0  0  0  0  0  0  0  0  0  0
   -2.3228   -3.3404  -20.8817 C   0  0  0  0  0  0  0  0  0  0  0  0
   -2.5879   -1.9744  -20.7128 C   0  0  0  0  0  0  0  0  0  0  0  0
   -3.9989   -1.7585  -20.2350 C   0  0  0  0  0  0  0  0  0  0  0  0
   -1.6202   -1.0218  -20.9911 C   0  0  0  0  0  0  0  0  0  0  0  0
   -0.3694   -1.4578  -21.4374 C   0  0  0  0  0  0  0  0  0  0  0  0
   -0.1021   -2.8297  -21.6157 C   0  0  0  0  0  0  0  0  0  0  0  0
   -1.0936   -3.7822  -21.3462 C   0  0  0  0  0  0  0  0  0  0  0  0
   -4.8660   -1.2728  -21.3573 N   0  0  0  0  0  0  0  0  0  0  0  0
   -5.8814   -1.9509  -21.5468 O   0  0  0  0  0  0  0  0  0  0  0  0
    2.8190   -2.3329  -20.2204 C   0  0  0  0  0  0  0  0  0  0  0  0
    3.9385   -1.5036  -20.1392 C   0  0  0  0  0  0  0  0  0  0  0  0
    4.2136   -0.8921  -18.9288 C   0  0  0  0  0  0  0  0  0  0  0  0
    3.4638   -1.0535  -17.8180 N   0  0  0  0  0  0  0  0  0  0  0  0
    2.3789   -1.8507  -17.9269 C   0  0  0  0  0  0  0  0  0  0  0  0
    2.0154   -2.5013  -19.0926 C   0  0  0  0  0  0  0  0  0  0  0  0
    3.5540   -4.8201  -24.2912 C   0  0  0  0  0  0  0  0  0  0  0  0
    3.9191   -6.2598  -23.9277 C   0  0  0  0  0  0  0  0  0  0  0  0
    2.9716   -7.3293  -24.4640 C   0  0  0  0  0  0  0  0  0  0  0  0
    2.3145   -8.0129  -23.4082 O   0  0  0  0  0  0  0  0  0  0  0  0
    2.9535   -8.6915  -23.0980 H   0  0  0  0  0  0  0  0  0  0  0  0
  6  7  1  0  0  0
  7  8  1  0  0  0
  8  9  2  0  0  0
  9 10  1  0  0  0
  6 10  1  0  0  0
 10 15  1  0  0  0
 15 16  2  0  0  0
  9 11  1  0  0  0
 11 12  2  0  0  0
 12 13  1  0  0  0
 13 14  2  0  0  0
  8 14  1  0  0  0
 13  1  1  0  0  0
  1  2  2  0  0  0
  2  3  1  0  0  0
  3  4  1  0  0  0
  4  5  2  0  0  0
  1  5  1  0  0  0
  5 17  1  0  0  0
 17 18  2  0  0  0
 18 19  1  0  0  0
 19 20  2  0  0  0
 20 21  1  0  0  0
 21 22  2  0  0  0
 17 22  1  0  0  0
  3 23  1  0  0  0
 23 24  1  0  0  0
 24 25  1  0  0  0
 25 26  1  0  0  0
 26 27  1  0  0  0
M  END
> <minimizedAffinity>
-9.71085

$$$$
mol_91896028_6


 27 30  0  0  0  0  0  0  0  0999 V2000
    4.2908   -3.1814  -21.3882 C   0  0  0  0  0  0  0  0  0  0  0  0
    5.2972   -3.1366  -20.4513 C   0  0  0  0  0  0  0  0  0  0  0  0
    6.3677   -3.7593  -21.0199 N   0  0  0  0  0  0  0  0  0  0  0  0
    6.1355   -4.1905  -22.2757 N   0  0  0  0  0  0  0  0  0  0  0  0
    4.8554   -3.8564  -22.5120 C   0  0  0  0  0  0  0  0  0  0  0  0
   -1.7044   -2.6601  -21.0062 C   0  0  0  0  0  0  0  0  0  0  0  0
   -0.7278   -3.2797  -22.0192 C   0  0  0  0  0  0  0  0  0  0  0  0
    0.5859   -2.7965  -21.4867 C   0  0  0  0  0  0  0  0  0  0  0  0
    0.4034   -1.6992  -20.6337 C   0  0  0  0  0  0  0  0  0  0  0  0
   -1.0562   -1.3507  -20.5154 C   0  0  0  0  0  0  0  0  0  0  0  0
    1.4869   -1.0732  -20.0375 C   0  0  0  0  0  0  0  0  0  0  0  0
    2.7670   -1.5683  -20.3019 C   0  0  0  0  0  0  0  0  0  0  0  0
    2.9546   -2.6663  -21.1649 C   0  0  0  0  0  0  0  0  0  0  0  0
    1.8527   -3.2807  -21.7740 C   0  0  0  0  0  0  0  0  0  0  0  0
   -1.3734   -0.1310  -21.3273 N   0  0  0  0  0  0  0  0  0  0  0  0
   -1.6153    0.8784  -20.6570 O   0  0  0  0  0  0  0  0  0  0  0  0
    4.2132   -4.1856  -23.7790 C   0  0  0  0  0  0  0  0  0  0  0  0
    3.9793   -3.1989  -24.7378 C   0  0  0  0  0  0  0  0  0  0  0  0
    3.3308   -3.5613  -25.9052 C   0  0  0  0  0  0  0  0  0  0  0  0
    2.9063   -4.8149  -26.1707 N   0  0  0  0  0  0  0  0  0  0  0  0
    3.1565   -5.7535  -25.2321 C   0  0  0  0  0  0  0  0  0  0  0  0
    3.8027   -5.4937  -24.0365 C   0  0  0  0  0  0  0  0  0  0  0  0
    7.6831   -3.9287  -20.4336 C   0  0  0  0  0  0  0  0  0  0  0  0
    7.7500   -4.9714  -19.3170 C   0  0  0  0  0  0  0  0  0  0  0  0
    7.5497   -4.4297  -17.9044 C   0  0  0  0  0  0  0  0  0  0  0  0
    8.1103   -3.1336  -17.7646 O   0  0  0  0  0  0  0  0  0  0  0  0
    9.0688   -3.2787  -17.6057 H   0  0  0  0  0  0  0  0  0  0  0  0
  6  7  1  0  0  0
  7  8  1  0  0  0
  8  9  2  0  0  0
  9 10  1  0  0  0
  6 10  1  0  0  0
 10 15  1  0  0  0
 15 16  2  0  0  0
  9 11  1  0  0  0
 11 12  2  0  0  0
 12 13  1  0  0  0
 13 14  2  0  0  0
  8 14  1  0  0  0
 13  1  1  0  0  0
  1  2  2  0  0  0
  2  3  1  0  0  0
  3  4  1  0  0  0
  4  5  2  0  0  0
  1  5  1  0  0  0
  5 17  1  0  0  0
 17 18  2  0  0  0
 18 19  1  0  0  0
 19 20  2  0  0  0
 20 21  1  0  0  0
 21 22  2  0  0  0
 17 22  1  0  0  0
  3 23  1  0  0  0
 23 24  1  0  0  0
 24 25  1  0  0  0
 25 26  1  0  0  0
 26 27  1  0  0  0
M  END
> <minimizedAffinity>
-8.95984

$$$$
mol_91896028_6


 27 30  0  0  0  0  0  0  0  0999 V2000
    1.7110   -2.3911  -20.7547 C   0  0  0  0  0  0  0  0  0  0  0  0
    0.7117   -1.6094  -20.2226 C   0  0  0  0  0  0  0  0  0  0  0  0
   -0.3605   -1.7551  -21.0509 N   0  0  0  0  0  0  0  0  0  0  0  0
   -0.1363   -2.5973  -22.0792 N   0  0  0  0  0  0  0  0  0  0  0  0
    1.1405   -2.9856  -21.9202 C   0  0  0  0  0  0  0  0  0  0  0  0
    7.6229   -1.6947  -19.7933 C   0  0  0  0  0  0  0  0  0  0  0  0
    6.7385   -1.9011  -21.0340 C   0  0  0  0  0  0  0  0  0  0  0  0
    5.4151   -2.1983  -20.3990 C   0  0  0  0  0  0  0  0  0  0  0  0
    5.5812   -2.5916  -19.0639 C   0  0  0  0  0  0  0  0  0  0  0  0
    7.0375   -2.5889  -18.6828 C   0  0  0  0  0  0  0  0  0  0  0  0
    4.4895   -2.9351  -18.2819 C   0  0  0  0  0  0  0  0  0  0  0  0
    3.2165   -2.8722  -18.8558 C   0  0  0  0  0  0  0  0  0  0  0  0
    3.0466   -2.4847  -20.1998 C   0  0  0  0  0  0  0  0  0  0  0  0
    4.1593   -2.1551  -20.9847 C   0  0  0  0  0  0  0  0  0  0  0  0
    7.5713   -3.9890  -18.6345 N   0  0  0  0  0  0  0  0  0  0  0  0
    7.5372   -4.5088  -17.5142 O   0  0  0  0  0  0  0  0  0  0  0  0
    1.7742   -3.8947  -22.8680 C   0  0  0  0  0  0  0  0  0  0  0  0
    1.3359   -5.2138  -22.9932 C   0  0  0  0  0  0  0  0  0  0  0  0
    2.0000   -6.0427  -23.8800 C   0  0  0  0  0  0  0  0  0  0  0  0
    3.0518   -5.6515  -24.6302 N   0  0  0  0  0  0  0  0  0  0  0  0
    3.4478   -4.3667  -24.4997 C   0  0  0  0  0  0  0  0  0  0  0  0
    2.8464   -3.4585  -23.6464 C   0  0  0  0  0  0  0  0  0  0  0  0
   -1.6704   -1.1557  -20.8854 C   0  0  0  0  0  0  0  0  0  0  0  0
   -2.8015   -2.1581  -20.6525 C   0  0  0  0  0  0  0  0  0  0  0  0
   -4.2099   -1.6208  -20.8908 C   0  0  0  0  0  0  0  0  0  0  0  0
   -5.0012   -2.5504  -21.6143 O   0  0  0  0  0  0  0  0  0  0  0  0
   -4.7596   -2.4214  -22.5577 H   0  0  0  0  0  0  0  0  0  0  0  0
  6  7  1  0  0  0
  7  8  1  0  0  0
  8  9  2  0  0  0
  9 10  1  0  0  0
  6 10  1  0  0  0
 10 15  1  0  0  0
 15 16  2  0  0  0
  9 11  1  0  0  0
 11 12  2  0  0  0
 12 13  1  0  0  0
 13 14  2  0  0  0
  8 14  1  0  0  0
 13  1  1  0  0  0
  1  2  2  0  0  0
  2  3  1  0  0  0
  3  4  1  0  0  0
  4  5  2  0  0  0
  1  5  1  0  0  0
  5 17  1  0  0  0
 17 18  2  0  0  0
 18 19  1  0  0  0
 19 20  2  0  0  0
 20 21  1  0  0  0
 21 22  2  0  0  0
 17 22  1  0  0  0
  3 23  1  0  0  0
 23 24  1  0  0  0
 24 25  1  0  0  0
 25 26  1  0  0  0
 26 27  1  0  0  0
M  END
> <minimizedAffinity>
-8.90756

$$$$
mol_11624965_7


 29 33  0  0  0  0  0  0  0  0999 V2000
    4.8696   -2.1182  -20.9662 N   0  0  0  0  0  0  0  0  0  0  0  0
    3.5614   -1.9785  -20.5908 C   0  0  0  0  0  0  0  0  0  0  0  0
    2.8174   -2.6348  -21.5475 C   0  0  0  0  0  0  0  0  0  0  0  0
    3.7670   -3.0890  -22.5054 C   0  0  0  0  0  0  0  0  0  0  0  0
    5.0135   -2.7715  -22.1312 N   0  0  0  0  0  0  0  0  0  0  0  0
    1.3901   -2.8577  -21.4484 C   0  0  0  0  0  0  0  0  0  0  0  0
    0.5527   -1.7779  -21.1181 C   0  0  0  0  0  0  0  0  0  0  0  0
   -0.8140   -1.9911  -21.0299 C   0  0  0  0  0  0  0  0  0  0  0  0
   -1.3312   -3.2597  -21.2576 C   0  0  0  0  0  0  0  0  0  0  0  0
   -0.5358   -4.3454  -21.5808 C   0  0  0  0  0  0  0  0  0  0  0  0
    0.8428   -4.1353  -21.6812 C   0  0  0  0  0  0  0  0  0  0  0  0
   -2.7749   -3.1936  -21.1012 C   0  0  0  0  0  0  0  0  0  0  0  0
   -3.5538   -4.2202  -21.2357 N   0  0  0  0  0  0  0  0  0  0  0  0
   -4.8878   -3.8503  -21.0320 O   0  0  0  0  0  0  0  0  0  0  0  0
   -3.1848   -1.7764  -20.7760 C   0  0  0  0  0  0  0  0  0  0  0  0
   -1.8703   -0.9853  -20.7003 C   0  0  0  0  0  0  0  0  0  0  0  0
   -5.3591   -4.6955  -21.1524 H   0  0  0  0  0  0  0  0  0  0  0  0
    5.9403   -2.0138  -18.7308 C   0  0  0  0  0  0  0  0  0  0  0  0
    6.2441   -3.4882  -18.5093 C   0  0  0  0  0  0  0  0  0  0  0  0
    7.5481   -3.7937  -18.9979 O   0  0  0  0  0  0  0  0  0  0  0  0
    7.6480   -3.6089  -20.4108 C   0  0  0  0  0  0  0  0  0  0  0  0
    7.3853   -2.1520  -20.7809 C   0  0  0  0  0  0  0  0  0  0  0  0
    6.0409   -1.6530  -20.2200 C   0  0  0  0  0  0  0  0  0  0  0  0
    3.5309   -3.8154  -23.7436 C   0  0  0  0  0  0  0  0  0  0  0  0
    3.4248   -5.2057  -23.7286 C   0  0  0  0  0  0  0  0  0  0  0  0
    3.2047   -5.8551  -24.9297 C   0  0  0  0  0  0  0  0  0  0  0  0
    3.0955   -5.2211  -26.1174 N   0  0  0  0  0  0  0  0  0  0  0  0
    3.2187   -3.8760  -26.1039 C   0  0  0  0  0  0  0  0  0  0  0  0
    3.4283   -3.1332  -24.9555 C   0  0  0  0  0  0  0  0  0  0  0  0
 18 19  1  0  0  0
 19 20  1  0  0  0
 20 21  1  0  0  0
 21 22  1  0  0  0
 22 23  1  0  0  0
 18 23  1  0  0  0
 23  1  1  0  0  0
  1  2  1  0  0  0
  2  3  2  0  0  0
  3  4  1  0  0  0
  4  5  2  0  0  0
  1  5  1  0  0  0
  4 24  1  0  0  0
 24 25  2  0  0  0
 25 26  1  0  0  0
 26 27  2  0  0  0
 27 28  1  0  0  0
 28 29  2  0  0  0
 24 29  1  0  0  0
  3  6  1  0  0  0
  6  7  2  0  0  0
  7  8  1  0  0  0
  8  9  2  0  0  0
  9 10  1  0  0  0
 10 11  2  0  0  0
  6 11  1  0  0  0
  9 12  1  0  0  0
 12 13  2  0  0  0
 13 14  1  0  0  0
 12 15  1  0  0  0
 15 16  1  0  0  0
  8 16  1  0  0  0
 14 17  1  0  0  0
M  END
> <minimizedAffinity>
-10.71056

$$$$
mol_11624965_7


 29 33  0  0  0  0  0  0  0  0999 V2000
    3.7801   -3.8225  -23.2982 N   0  0  0  0  0  0  0  0  0  0  0  0
    2.4162   -3.9239  -23.2596 C   0  0  0  0  0  0  0  0  0  0  0  0
    2.0234   -3.3424  -22.0734 C   0  0  0  0  0  0  0  0  0  0  0  0
    3.2354   -2.9724  -21.4252 C   0  0  0  0  0  0  0  0  0  0  0  0
    4.2957   -3.2660  -22.1896 N   0  0  0  0  0  0  0  0  0  0  0  0
    0.6426   -3.1039  -21.7088 C   0  0  0  0  0  0  0  0  0  0  0  0
    0.1874   -1.7789  -21.5919 C   0  0  0  0  0  0  0  0  0  0  0  0
   -1.1363   -1.5519  -21.2491 C   0  0  0  0  0  0  0  0  0  0  0  0
   -1.9843   -2.6273  -21.0188 C   0  0  0  0  0  0  0  0  0  0  0  0
   -1.5687   -3.9436  -21.1214 C   0  0  0  0  0  0  0  0  0  0  0  0
   -0.2372   -4.1799  -21.4764 C   0  0  0  0  0  0  0  0  0  0  0  0
   -3.2976   -2.1029  -20.6823 C   0  0  0  0  0  0  0  0  0  0  0  0
   -4.3133   -2.8549  -20.3969 N   0  0  0  0  0  0  0  0  0  0  0  0
   -5.4386   -2.0704  -20.1204 O   0  0  0  0  0  0  0  0  0  0  0  0
   -3.2677   -0.5932  -20.7303 C   0  0  0  0  0  0  0  0  0  0  0  0
   -1.8164   -0.2310  -21.0796 C   0  0  0  0  0  0  0  0  0  0  0  0
   -6.1163   -2.7421  -19.9190 H   0  0  0  0  0  0  0  0  0  0  0  0
    6.0565   -4.5978  -23.9073 C   0  0  0  0  0  0  0  0  0  0  0  0
    6.0592   -5.9685  -23.2467 C   0  0  0  0  0  0  0  0  0  0  0  0
    5.5968   -6.9525  -24.1690 O   0  0  0  0  0  0  0  0  0  0  0  0
    4.2376   -6.7336  -24.5496 C   0  0  0  0  0  0  0  0  0  0  0  0
    4.0877   -5.3876  -25.2527 C   0  0  0  0  0  0  0  0  0  0  0  0
    4.6497   -4.2329  -24.4029 C   0  0  0  0  0  0  0  0  0  0  0  0
    3.4145   -2.3467  -20.1241 C   0  0  0  0  0  0  0  0  0  0  0  0
    4.5790   -1.6315  -19.8471 C   0  0  0  0  0  0  0  0  0  0  0  0
    4.7086   -1.0572  -18.5957 C   0  0  0  0  0  0  0  0  0  0  0  0
    3.7762   -1.1566  -17.6234 N   0  0  0  0  0  0  0  0  0  0  0  0
    2.6660   -1.8690  -17.9141 C   0  0  0  0  0  0  0  0  0  0  0  0
    2.4362   -2.4718  -19.1382 C   0  0  0  0  0  0  0  0  0  0  0  0
 18 19  1  0  0  0
 19 20  1  0  0  0
 20 21  1  0  0  0
 21 22  1  0  0  0
 22 23  1  0  0  0
 18 23  1  0  0  0
 23  1  1  0  0  0
  1  2  1  0  0  0
  2  3  2  0  0  0
  3  4  1  0  0  0
  4  5  2  0  0  0
  1  5  1  0  0  0
  4 24  1  0  0  0
 24 25  2  0  0  0
 25 26  1  0  0  0
 26 27  2  0  0  0
 27 28  1  0  0  0
 28 29  2  0  0  0
 24 29  1  0  0  0
  3  6  1  0  0  0
  6  7  2  0  0  0
  7  8  1  0  0  0
  8  9  2  0  0  0
  9 10  1  0  0  0
 10 11  2  0  0  0
  6 11  1  0  0  0
  9 12  1  0  0  0
 12 13  2  0  0  0
 13 14  1  0  0  0
 12 15  1  0  0  0
 15 16  1  0  0  0
  8 16  1  0  0  0
 14 17  1  0  0  0
M  END
> <minimizedAffinity>
-10.47044

$$$$
mol_11624965_7


 29 33  0  0  0  0  0  0  0  0999 V2000
    6.1437   -3.3454  -21.9890 N   0  0  0  0  0  0  0  0  0  0  0  0
    4.9160   -2.9010  -21.5802 C   0  0  0  0  0  0  0  0  0  0  0  0
    3.9896   -3.6035  -22.3204 C   0  0  0  0  0  0  0  0  0  0  0  0
    4.7596   -4.4104  -23.2046 C   0  0  0  0  0  0  0  0  0  0  0  0
    6.0707   -4.2455  -22.9835 N   0  0  0  0  0  0  0  0  0  0  0  0
    2.5610   -3.5454  -22.0920 C   0  0  0  0  0  0  0  0  0  0  0  0
    2.0233   -2.4364  -21.4157 C   0  0  0  0  0  0  0  0  0  0  0  0
    0.6547   -2.3788  -21.2033 C   0  0  0  0  0  0  0  0  0  0  0  0
   -0.1575   -3.4132  -21.6493 C   0  0  0  0  0  0  0  0  0  0  0  0
    0.3387   -4.5208  -22.3148 C   0  0  0  0  0  0  0  0  0  0  0  0
    1.7170   -4.5807  -22.5411 C   0  0  0  0  0  0  0  0  0  0  0  0
   -1.5309   -3.0931  -21.2967 C   0  0  0  0  0  0  0  0  0  0  0  0
   -2.5341   -3.8686  -21.5631 N   0  0  0  0  0  0  0  0  0  0  0  0
   -3.7273   -3.2959  -21.1088 O   0  0  0  0  0  0  0  0  0  0  0  0
   -1.5762   -1.7520  -20.6025 C   0  0  0  0  0  0  0  0  0  0  0  0
   -0.1124   -1.2945  -20.5165 C   0  0  0  0  0  0  0  0  0  0  0  0
   -4.3890   -3.9670  -21.3594 H   0  0  0  0  0  0  0  0  0  0  0  0
    7.2803   -1.8861  -20.3359 C   0  0  0  0  0  0  0  0  0  0  0  0
    6.7937   -2.5182  -19.0401 C   0  0  0  0  0  0  0  0  0  0  0  0
    7.7104   -3.5249  -18.6172 O   0  0  0  0  0  0  0  0  0  0  0  0
    7.7838   -4.6074  -19.5462 C   0  0  0  0  0  0  0  0  0  0  0  0
    8.2851   -4.1177  -20.9017 C   0  0  0  0  0  0  0  0  0  0  0  0
    7.4395   -2.9465  -21.4350 C   0  0  0  0  0  0  0  0  0  0  0  0
    4.2946   -5.3294  -24.2320 C   0  0  0  0  0  0  0  0  0  0  0  0
    4.3498   -6.7058  -24.0152 C   0  0  0  0  0  0  0  0  0  0  0  0
    3.9012   -7.5421  -25.0212 C   0  0  0  0  0  0  0  0  0  0  0  0
    3.4211   -7.1029  -26.2049 N   0  0  0  0  0  0  0  0  0  0  0  0
    3.3946   -5.7656  -26.3935 C   0  0  0  0  0  0  0  0  0  0  0  0
    3.8094   -4.8459  -25.4466 C   0  0  0  0  0  0  0  0  0  0  0  0
 18 19  1  0  0  0
 19 20  1  0  0  0
 20 21  1  0  0  0
 21 22  1  0  0  0
 22 23  1  0  0  0
 18 23  1  0  0  0
 23  1  1  0  0  0
  1  2  1  0  0  0
  2  3  2  0  0  0
  3  4  1  0  0  0
  4  5  2  0  0  0
  1  5  1  0  0  0
  4 24  1  0  0  0
 24 25  2  0  0  0
 25 26  1  0  0  0
 26 27  2  0  0  0
 27 28  1  0  0  0
 28 29  2  0  0  0
 24 29  1  0  0  0
  3  6  1  0  0  0
  6  7  2  0  0  0
  7  8  1  0  0  0
  8  9  2  0  0  0
  9 10  1  0  0  0
 10 11  2  0  0  0
  6 11  1  0  0  0
  9 12  1  0  0  0
 12 13  2  0  0  0
 13 14  1  0  0  0
 12 15  1  0  0  0
 15 16  1  0  0  0
  8 16  1  0  0  0
 14 17  1  0  0  0
M  END
> <minimizedAffinity>
-9.61636

$$$$
mol_54586539_8


 32 37  0  0  0  0  0  0  0  0999 V2000
    4.5357   -2.6915  -20.1544 N   0  0  0  0  0  0  0  0  0  0  0  0
    3.2325   -2.4206  -19.8415 C   0  0  0  0  0  0  0  0  0  0  0  0
    2.4821   -2.7563  -20.9504 C   0  0  0  0  0  0  0  0  0  0  0  0
    3.4536   -3.1430  -21.9285 C   0  0  0  0  0  0  0  0  0  0  0  0
    4.6952   -3.0913  -21.4244 N   0  0  0  0  0  0  0  0  0  0  0  0
    1.0223   -2.7617  -20.9695 C   0  0  0  0  0  0  0  0  0  0  0  0
    0.2991   -1.5547  -20.9907 C   0  0  0  0  0  0  0  0  0  0  0  0
   -1.0879   -1.6089  -20.9875 C   0  0  0  0  0  0  0  0  0  0  0  0
   -1.7499   -2.8657  -21.0021 C   0  0  0  0  0  0  0  0  0  0  0  0
   -1.0739   -4.0592  -20.9704 C   0  0  0  0  0  0  0  0  0  0  0  0
    0.3220   -3.9951  -20.9332 C   0  0  0  0  0  0  0  0  0  0  0  0
   -3.1313   -2.5502  -21.0125 C   0  0  0  0  0  0  0  0  0  0  0  0
   -3.3270   -1.1988  -20.9725 C   0  0  0  0  0  0  0  0  0  0  0  0
   -2.0624   -0.4123  -20.9449 C   0  0  0  0  0  0  0  0  0  0  0  0
   -4.7128   -1.0478  -20.9596 C   0  0  0  0  0  0  0  0  0  0  0  0
   -5.3416   -2.2369  -21.0256 N   0  0  0  0  0  0  0  0  0  0  0  0
   -4.3347   -3.1490  -21.0702 N   0  0  0  0  0  0  0  0  0  0  0  0
   -4.5659   -4.1335  -21.1451 H   0  0  0  0  0  0  0  0  0  0  0  0
    7.5961   -1.8234  -20.7468 C   0  0  0  0  0  0  0  0  0  0  0  0
    6.7011   -1.5185  -19.5400 C   0  0  0  0  0  0  0  0  0  0  0  0
    5.6711   -2.6277  -19.2319 C   0  0  0  0  0  0  0  0  0  0  0  0
    6.3869   -3.9833  -19.1298 C   0  0  0  0  0  0  0  0  0  0  0  0
    7.1854   -4.2955  -20.3938 C   0  0  0  0  0  0  0  0  0  0  0  0
    8.2227   -3.2108  -20.6732 C   0  0  0  0  0  0  0  0  0  0  0  0
    7.8361   -5.5529  -20.2352 O   0  0  0  0  0  0  0  0  0  0  0  0
    8.5259   -5.4596  -19.5565 H   0  0  0  0  0  0  0  0  0  0  0  0
    3.2387   -3.5965  -23.2976 C   0  0  0  0  0  0  0  0  0  0  0  0
    2.4549   -4.7256  -23.5388 C   0  0  0  0  0  0  0  0  0  0  0  0
    2.1971   -5.0730  -24.8523 C   0  0  0  0  0  0  0  0  0  0  0  0
    2.6682   -4.3873  -25.9164 N   0  0  0  0  0  0  0  0  0  0  0  0
    3.4478   -3.3157  -25.6545 C   0  0  0  0  0  0  0  0  0  0  0  0
    3.7614   -2.8847  -24.3775 C   0  0  0  0  0  0  0  0  0  0  0  0
 19 20  1  0  0  0
 20 21  1  0  0  0
 21 22  1  0  0  0
 22 23  1  0  0  0
 23 24  1  0  0  0
 19 24  1  0  0  0
 23 25  1  0  0  0
 21  1  1  0  0  0
  1  2  1  0  0  0
  2  3  2  0  0  0
  3  4  1  0  0  0
  4  5  2  0  0  0
  1  5  1  0  0  0
  4 27  1  0  0  0
 27 28  2  0  0  0
 28 29  1  0  0  0
 29 30  2  0  0  0
 30 31  1  0  0  0
 31 32  2  0  0  0
 27 32  1  0  0  0
  3  6  1  0  0  0
  6  7  2  0  0  0
  7  8  1  0  0  0
  8  9  2  0  0  0
  9 10  1  0  0  0
 10 11  2  0  0  0
  6 11  1  0  0  0
  9 12  1  0  0  0
 12 13  2  0  0  0
 13 14  1  0  0  0
  8 14  1  0  0  0
 13 15  1  0  0  0
 15 16  2  0  0  0
 16 17  1  0  0  0
 12 17  1  0  0  0
 25 26  1  0  0  0
 17 18  1  0  0  0
M  END
> <minimizedAffinity>
-11.48765

$$$$
mol_54586539_8


 32 37  0  0  0  0  0  0  0  0999 V2000
    3.2449   -3.7867  -23.3747 N   0  0  0  0  0  0  0  0  0  0  0  0
    1.8817   -3.7989  -23.2697 C   0  0  0  0  0  0  0  0  0  0  0  0
    1.5724   -3.1883  -22.0709 C   0  0  0  0  0  0  0  0  0  0  0  0
    2.8460   -2.9188  -21.4747 C   0  0  0  0  0  0  0  0  0  0  0  0
    3.8481   -3.2953  -22.2825 N   0  0  0  0  0  0  0  0  0  0  0  0
    0.2115   -2.8621  -21.6551 C   0  0  0  0  0  0  0  0  0  0  0  0
   -0.7346   -3.8790  -21.4295 C   0  0  0  0  0  0  0  0  0  0  0  0
   -2.0222   -3.5200  -21.0554 C   0  0  0  0  0  0  0  0  0  0  0  0
   -2.3526   -2.1510  -20.8697 C   0  0  0  0  0  0  0  0  0  0  0  0
   -1.4565   -1.1361  -21.0924 C   0  0  0  0  0  0  0  0  0  0  0  0
   -0.1736   -1.5045  -21.5079 C   0  0  0  0  0  0  0  0  0  0  0  0
   -3.7153   -2.1540  -20.4815 C   0  0  0  0  0  0  0  0  0  0  0  0
   -4.2165   -3.4245  -20.4574 C   0  0  0  0  0  0  0  0  0  0  0  0
   -3.2184   -4.4680  -20.8228 C   0  0  0  0  0  0  0  0  0  0  0  0
   -5.5522   -3.2652  -20.0914 C   0  0  0  0  0  0  0  0  0  0  0  0
   -5.8532   -1.9721  -19.8649 N   0  0  0  0  0  0  0  0  0  0  0  0
   -4.6909   -1.3087  -20.1025 N   0  0  0  0  0  0  0  0  0  0  0  0
   -4.6636   -0.3031  -19.9742 H   0  0  0  0  0  0  0  0  0  0  0  0
    2.7348   -6.2700  -25.3856 C   0  0  0  0  0  0  0  0  0  0  0  0
    3.1922   -4.8376  -25.6846 C   0  0  0  0  0  0  0  0  0  0  0  0
    4.0192   -4.1973  -24.5477 C   0  0  0  0  0  0  0  0  0  0  0  0
    5.1729   -5.1341  -24.1577 C   0  0  0  0  0  0  0  0  0  0  0  0
    4.6655   -6.5212  -23.7688 C   0  0  0  0  0  0  0  0  0  0  0  0
    3.8768   -7.1599  -24.9092 C   0  0  0  0  0  0  0  0  0  0  0  0
    5.7771   -7.3464  -23.4323 O   0  0  0  0  0  0  0  0  0  0  0  0
    6.2894   -7.5180  -24.2405 H   0  0  0  0  0  0  0  0  0  0  0  0
    3.1378   -2.2827  -20.1955 C   0  0  0  0  0  0  0  0  0  0  0  0
    2.2655   -2.4562  -19.1201 C   0  0  0  0  0  0  0  0  0  0  0  0
    2.6200   -1.9151  -17.8978 C   0  0  0  0  0  0  0  0  0  0  0  0
    3.7585   -1.2197  -17.6867 N   0  0  0  0  0  0  0  0  0  0  0  0
    4.5706   -1.0421  -18.7514 C   0  0  0  0  0  0  0  0  0  0  0  0
    4.3081   -1.5456  -20.0133 C   0  0  0  0  0  0  0  0  0  0  0  0
 19 20  1  0  0  0
 20 21  1  0  0  0
 21 22  1  0  0  0
 22 23  1  0  0  0
 23 24  1  0  0  0
 19 24  1  0  0  0
 23 25  1  0  0  0
 21  1  1  0  0  0
  1  2  1  0  0  0
  2  3  2  0  0  0
  3  4  1  0  0  0
  4  5  2  0  0  0
  1  5  1  0  0  0
  4 27  1  0  0  0
 27 28  2  0  0  0
 28 29  1  0  0  0
 29 30  2  0  0  0
 30 31  1  0  0  0
 31 32  2  0  0  0
 27 32  1  0  0  0
  3  6  1  0  0  0
  6  7  2  0  0  0
  7  8  1  0  0  0
  8  9  2  0  0  0
  9 10  1  0  0  0
 10 11  2  0  0  0
  6 11  1  0  0  0
  9 12  1  0  0  0
 12 13  2  0  0  0
 13 14  1  0  0  0
  8 14  1  0  0  0
 13 15  1  0  0  0
 15 16  2  0  0  0
 16 17  1  0  0  0
 12 17  1  0  0  0
 25 26  1  0  0  0
 17 18  1  0  0  0
M  END
> <minimizedAffinity>
-11.17473

$$$$
mol_54586539_8


 32 37  0  0  0  0  0  0  0  0999 V2000
    4.0781   -3.7389  -23.2372 N   0  0  0  0  0  0  0  0  0  0  0  0
    2.7271   -3.9489  -23.2195 C   0  0  0  0  0  0  0  0  0  0  0  0
    2.2560   -3.3908  -22.0482 C   0  0  0  0  0  0  0  0  0  0  0  0
    3.4359   -2.9397  -21.3741 C   0  0  0  0  0  0  0  0  0  0  0  0
    4.5320   -3.1660  -22.1129 N   0  0  0  0  0  0  0  0  0  0  0  0
    0.8382   -3.2659  -21.7230 C   0  0  0  0  0  0  0  0  0  0  0  0
    0.2233   -2.0017  -21.6614 C   0  0  0  0  0  0  0  0  0  0  0  0
   -1.1223   -1.9308  -21.3282 C   0  0  0  0  0  0  0  0  0  0  0  0
   -1.8603   -3.1220  -21.0952 C   0  0  0  0  0  0  0  0  0  0  0  0
   -1.2876   -4.3680  -21.1365 C   0  0  0  0  0  0  0  0  0  0  0  0
    0.0771   -4.4277  -21.4333 C   0  0  0  0  0  0  0  0  0  0  0  0
   -3.1762   -2.6846  -20.8035 C   0  0  0  0  0  0  0  0  0  0  0  0
   -3.2550   -1.3209  -20.8171 C   0  0  0  0  0  0  0  0  0  0  0  0
   -1.9658   -0.6508  -21.1450 C   0  0  0  0  0  0  0  0  0  0  0  0
   -4.5818   -1.0455  -20.4898 C   0  0  0  0  0  0  0  0  0  0  0  0
   -5.2951   -2.1751  -20.3193 N   0  0  0  0  0  0  0  0  0  0  0  0
   -4.3994   -3.1750  -20.5328 N   0  0  0  0  0  0  0  0  0  0  0  0
   -4.7147   -4.1373  -20.4793 H   0  0  0  0  0  0  0  0  0  0  0  0
    4.2219   -6.3820  -25.0985 C   0  0  0  0  0  0  0  0  0  0  0  0
    4.3661   -4.9027  -25.4745 C   0  0  0  0  0  0  0  0  0  0  0  0
    4.9778   -4.0318  -24.3548 C   0  0  0  0  0  0  0  0  0  0  0  0
    6.2899   -4.6648  -23.8667 C   0  0  0  0  0  0  0  0  0  0  0  0
    6.0828   -6.1061  -23.4057 C   0  0  0  0  0  0  0  0  0  0  0  0
    5.5083   -6.9672  -24.5277 C   0  0  0  0  0  0  0  0  0  0  0  0
    7.3319   -6.6430  -22.9797 O   0  0  0  0  0  0  0  0  0  0  0  0
    7.9066   -6.7411  -23.7576 H   0  0  0  0  0  0  0  0  0  0  0  0
    3.5494   -2.2691  -20.0843 C   0  0  0  0  0  0  0  0  0  0  0  0
    2.4859   -2.3175  -19.1820 C   0  0  0  0  0  0  0  0  0  0  0  0
    2.6625   -1.7494  -17.9336 C   0  0  0  0  0  0  0  0  0  0  0  0
    3.8025   -1.1413  -17.5401 N   0  0  0  0  0  0  0  0  0  0  0  0
    4.8055   -1.0833  -18.4431 C   0  0  0  0  0  0  0  0  0  0  0  0
    4.7295   -1.6235  -19.7148 C   0  0  0  0  0  0  0  0  0  0  0  0
 19 20  1  0  0  0
 20 21  1  0  0  0
 21 22  1  0  0  0
 22 23  1  0  0  0
 23 24  1  0  0  0
 19 24  1  0  0  0
 23 25  1  0  0  0
 21  1  1  0  0  0
  1  2  1  0  0  0
  2  3  2  0  0  0
  3  4  1  0  0  0
  4  5  2  0  0  0
  1  5  1  0  0  0
  4 27  1  0  0  0
 27 28  2  0  0  0
 28 29  1  0  0  0
 29 30  2  0  0  0
 30 31  1  0  0  0
 31 32  2  0  0  0
 27 32  1  0  0  0
  3  6  1  0  0  0
  6  7  2  0  0  0
  7  8  1  0  0  0
  8  9  2  0  0  0
  9 10  1  0  0  0
 10 11  2  0  0  0
  6 11  1  0  0  0
  9 12  1  0  0  0
 12 13  2  0  0  0
 13 14  1  0  0  0
  8 14  1  0  0  0
 13 15  1  0  0  0
 15 16  2  0  0  0
 16 17  1  0  0  0
 12 17  1  0  0  0
 25 26  1  0  0  0
 17 18  1  0  0  0
M  END
> <minimizedAffinity>
-10.81445

$$$$
mol_135438492_9


 27 30  0  0  0  0  0  0  0  0999 V2000
    2.8058   -2.8284  -20.8817 C   0  0  0  0  0  0  0  0  0  0  0  0
    3.5929   -3.3034  -21.9220 C   0  0  0  0  0  0  0  0  0  0  0  0
    4.8704   -3.3658  -21.4069 N   0  0  0  0  0  0  0  0  0  0  0  0
    4.9463   -2.9823  -20.1119 N   0  0  0  0  0  0  0  0  0  0  0  0
    3.6940   -2.6379  -19.8058 C   0  0  0  0  0  0  0  0  0  0  0  0
   -1.2016    0.2215  -20.9432 C   0  0  0  0  0  0  0  0  0  0  0  0
   -2.6875   -0.1590  -20.9917 C   0  0  0  0  0  0  0  0  0  0  0  0
   -2.7100   -1.6706  -21.0233 C   0  0  0  0  0  0  0  0  0  0  0  0
   -3.7556   -2.4323  -21.0440 N   0  0  0  0  0  0  0  0  0  0  0  0
   -4.9221   -1.6581  -21.0313 O   0  0  0  0  0  0  0  0  0  0  0  0
   -1.3461   -2.1769  -21.0279 C   0  0  0  0  0  0  0  0  0  0  0  0
   -0.4848   -1.0888  -20.9854 C   0  0  0  0  0  0  0  0  0  0  0  0
    0.8847   -1.2922  -20.9627 C   0  0  0  0  0  0  0  0  0  0  0  0
    1.3773   -2.6072  -20.9695 C   0  0  0  0  0  0  0  0  0  0  0  0
    0.4871   -3.6986  -21.0298 C   0  0  0  0  0  0  0  0  0  0  0  0
   -0.8957   -3.4856  -21.0570 C   0  0  0  0  0  0  0  0  0  0  0  0
   -5.6232   -2.3357  -21.0382 H   0  0  0  0  0  0  0  0  0  0  0  0
    3.2370   -3.6265  -23.3006 C   0  0  0  0  0  0  0  0  0  0  0  0
    3.7221   -2.8621  -24.3596 C   0  0  0  0  0  0  0  0  0  0  0  0
    3.3500   -3.2090  -25.6466 C   0  0  0  0  0  0  0  0  0  0  0  0
    2.5607   -4.2632  -25.9399 N   0  0  0  0  0  0  0  0  0  0  0  0
    2.1251   -5.0036  -24.8980 C   0  0  0  0  0  0  0  0  0  0  0  0
    2.4314   -4.7298  -23.5759 C   0  0  0  0  0  0  0  0  0  0  0  0
    6.1056   -3.6998  -22.0995 C   0  0  0  0  0  0  0  0  0  0  0  0
    7.3193   -3.6856  -21.1790 C   0  0  0  0  0  0  0  0  0  0  0  0
    7.3010   -4.7828  -20.2683 O   0  0  0  0  0  0  0  0  0  0  0  0
    7.0686   -4.4246  -19.3944 H   0  0  0  0  0  0  0  0  0  0  0  0
  6  7  1  0  0  0
  7  8  1  0  0  0
  8  9  2  0  0  0
  9 10  1  0  0  0
  8 11  1  0  0  0
 11 12  2  0  0  0
  6 12  1  0  0  0
 12 13  1  0  0  0
 13 14  2  0  0  0
 14 15  1  0  0  0
 15 16  2  0  0  0
 11 16  1  0  0  0
 14  1  1  0  0  0
  1  2  2  0  0  0
  2  3  1  0  0  0
  3  4  1  0  0  0
  4  5  2  0  0  0
  1  5  1  0  0  0
  3 24  1  0  0  0
 24 25  1  0  0  0
 25 26  1  0  0  0
  2 18  1  0  0  0
 18 19  2  0  0  0
 19 20  1  0  0  0
 20 21  2  0  0  0
 21 22  1  0  0  0
 22 23  2  0  0  0
 18 23  1  0  0  0
 10 17  1  0  0  0
 26 27  1  0  0  0
M  END
> <minimizedAffinity>
-9.05500

$$$$
mol_135438492_9


 27 30  0  0  0  0  0  0  0  0999 V2000
    4.1409   -3.6499  -24.3791 C   0  0  0  0  0  0  0  0  0  0  0  0
    5.1539   -4.4934  -24.8147 C   0  0  0  0  0  0  0  0  0  0  0  0
    4.9513   -4.6275  -26.1720 N   0  0  0  0  0  0  0  0  0  0  0  0
    3.8957   -3.9165  -26.6301 N   0  0  0  0  0  0  0  0  0  0  0  0
    3.3962   -3.3425  -25.5339 C   0  0  0  0  0  0  0  0  0  0  0  0
    1.2071   -2.5189  -20.4448 C   0  0  0  0  0  0  0  0  0  0  0  0
    1.6235   -1.9763  -19.0710 C   0  0  0  0  0  0  0  0  0  0  0  0
    3.1289   -1.8501  -19.1330 C   0  0  0  0  0  0  0  0  0  0  0  0
    3.9110   -1.4077  -18.2021 N   0  0  0  0  0  0  0  0  0  0  0  0
    3.1664   -1.0392  -17.0751 O   0  0  0  0  0  0  0  0  0  0  0  0
    3.6022   -2.3102  -20.4295 C   0  0  0  0  0  0  0  0  0  0  0  0
    2.4976   -2.6960  -21.1768 C   0  0  0  0  0  0  0  0  0  0  0  0
    2.6668   -3.1625  -22.4695 C   0  0  0  0  0  0  0  0  0  0  0  0
    3.9628   -3.2233  -23.0066 C   0  0  0  0  0  0  0  0  0  0  0  0
    5.0734   -2.8429  -22.2261 C   0  0  0  0  0  0  0  0  0  0  0  0
    4.8955   -2.3765  -20.9188 C   0  0  0  0  0  0  0  0  0  0  0  0
    3.8557   -0.7199  -16.4640 H   0  0  0  0  0  0  0  0  0  0  0  0
    6.1989   -5.1784  -24.0596 C   0  0  0  0  0  0  0  0  0  0  0  0
    5.9394   -6.3893  -23.4211 C   0  0  0  0  0  0  0  0  0  0  0  0
    6.9643   -6.9941  -22.7149 C   0  0  0  0  0  0  0  0  0  0  0  0
    8.2129   -6.4904  -22.6273 N   0  0  0  0  0  0  0  0  0  0  0  0
    8.4458   -5.3295  -23.2765 C   0  0  0  0  0  0  0  0  0  0  0  0
    7.4839   -4.6426  -23.9975 C   0  0  0  0  0  0  0  0  0  0  0  0
    5.6641   -5.4826  -27.1089 C   0  0  0  0  0  0  0  0  0  0  0  0
    6.1603   -4.7274  -28.3353 C   0  0  0  0  0  0  0  0  0  0  0  0
    5.1486   -4.6264  -29.3352 O   0  0  0  0  0  0  0  0  0  0  0  0
    5.3889   -5.2433  -30.0478 H   0  0  0  0  0  0  0  0  0  0  0  0
  6  7  1  0  0  0
  7  8  1  0  0  0
  8  9  2  0  0  0
  9 10  1  0  0  0
  8 11  1  0  0  0
 11 12  2  0  0  0
  6 12  1  0  0  0
 12 13  1  0  0  0
 13 14  2  0  0  0
 14 15  1  0  0  0
 15 16  2  0  0  0
 11 16  1  0  0  0
 14  1  1  0  0  0
  1  2  2  0  0  0
  2  3  1  0  0  0
  3  4  1  0  0  0
  4  5  2  0  0  0
  1  5  1  0  0  0
  3 24  1  0  0  0
 24 25  1  0  0  0
 25 26  1  0  0  0
  2 18  1  0  0  0
 18 19  2  0  0  0
 19 20  1  0  0  0
 20 21  2  0  0  0
 21 22  1  0  0  0
 22 23  2  0  0  0
 18 23  1  0  0  0
 10 17  1  0  0  0
 26 27  1  0  0  0
M  END
> <minimizedAffinity>
-8.74869

$$$$
mol_135438492_9


 27 30  0  0  0  0  0  0  0  0999 V2000
    3.8864   -3.8713  -22.8049 C   0  0  0  0  0  0  0  0  0  0  0  0
    4.9001   -3.3931  -21.9856 C   0  0  0  0  0  0  0  0  0  0  0  0
    6.0714   -3.7102  -22.6404 N   0  0  0  0  0  0  0  0  0  0  0  0
    5.8729   -4.3376  -23.8222 N   0  0  0  0  0  0  0  0  0  0  0  0
    4.5459   -4.4507  -23.9059 C   0  0  0  0  0  0  0  0  0  0  0  0
   -0.0224   -1.4294  -20.7743 C   0  0  0  0  0  0  0  0  0  0  0  0
   -1.4886   -1.8757  -20.6977 C   0  0  0  0  0  0  0  0  0  0  0  0
   -1.5288   -3.2270  -21.3749 C   0  0  0  0  0  0  0  0  0  0  0  0
   -2.5615   -3.9922  -21.5227 N   0  0  0  0  0  0  0  0  0  0  0  0
   -3.6939   -3.3968  -20.9538 O   0  0  0  0  0  0  0  0  0  0  0  0
   -0.1997   -3.5679  -21.8585 C   0  0  0  0  0  0  0  0  0  0  0  0
    0.6598   -2.5331  -21.5152 C   0  0  0  0  0  0  0  0  0  0  0  0
    2.0024   -2.6121  -21.8448 C   0  0  0  0  0  0  0  0  0  0  0  0
    2.4727   -3.7537  -22.5136 C   0  0  0  0  0  0  0  0  0  0  0  0
    1.5811   -4.7864  -22.8686 C   0  0  0  0  0  0  0  0  0  0  0  0
    0.2247   -4.6980  -22.5362 C   0  0  0  0  0  0  0  0  0  0  0  0
   -4.3861   -4.0632  -21.1189 H   0  0  0  0  0  0  0  0  0  0  0  0
    4.8284   -2.7465  -20.6786 C   0  0  0  0  0  0  0  0  0  0  0  0
    5.0602   -3.4710  -19.5114 C   0  0  0  0  0  0  0  0  0  0  0  0
    4.9751   -2.8102  -18.2984 C   0  0  0  0  0  0  0  0  0  0  0  0
    4.7032   -1.4941  -18.1797 N   0  0  0  0  0  0  0  0  0  0  0  0
    4.5085   -0.8087  -19.3268 C   0  0  0  0  0  0  0  0  0  0  0  0
    4.5596   -1.3822  -20.5859 C   0  0  0  0  0  0  0  0  0  0  0  0
    7.4391   -3.5306  -22.1775 C   0  0  0  0  0  0  0  0  0  0  0  0
    8.2153   -4.8396  -22.1117 C   0  0  0  0  0  0  0  0  0  0  0  0
    7.4254   -5.8919  -21.5617 O   0  0  0  0  0  0  0  0  0  0  0  0
    7.7539   -6.0546  -20.6609 H   0  0  0  0  0  0  0  0  0  0  0  0
  6  7  1  0  0  0
  7  8  1  0  0  0
  8  9  2  0  0  0
  9 10  1  0  0  0
  8 11  1  0  0  0
 11 12  2  0  0  0
  6 12  1  0  0  0
 12 13  1  0  0  0
 13 14  2  0  0  0
 14 15  1  0  0  0
 15 16  2  0  0  0
 11 16  1  0  0  0
 14  1  1  0  0  0
  1  2  2  0  0  0
  2  3  1  0  0  0
  3  4  1  0  0  0
  4  5  2  0  0  0
  1  5  1  0  0  0
  3 24  1  0  0  0
 24 25  1  0  0  0
 25 26  1  0  0  0
  2 18  1  0  0  0
 18 19  2  0  0  0
 19 20  1  0  0  0
 20 21  2  0  0  0
 21 22  1  0  0  0
 22 23  2  0  0  0
 18 23  1  0  0  0
 10 17  1  0  0  0
 26 27  1  0  0  0
M  END
> <minimizedAffinity>
-8.68781

$$$$
mol_11717001_10


 27 30  0  0  0  0  0  0  0  0999 V2000
    2.5036   -2.7994  -20.9613 C   0  0  0  0  0  0  0  0  0  0  0  0
    3.2393   -2.6596  -19.8067 C   0  0  0  0  0  0  0  0  0  0  0  0
    4.5084   -3.0422  -20.1296 N   0  0  0  0  0  0  0  0  0  0  0  0
    4.6495   -3.4336  -21.4145 N   0  0  0  0  0  0  0  0  0  0  0  0
    3.4313   -3.2531  -21.9474 C   0  0  0  0  0  0  0  0  0  0  0  0
   -1.5249    0.2072  -20.8637 C   0  0  0  0  0  0  0  0  0  0  0  0
   -3.0086   -0.1846  -20.8973 C   0  0  0  0  0  0  0  0  0  0  0  0
   -3.0178   -1.6936  -20.9818 C   0  0  0  0  0  0  0  0  0  0  0  0
   -4.0571   -2.4670  -20.9982 N   0  0  0  0  0  0  0  0  0  0  0  0
   -5.2298   -1.7070  -20.9237 O   0  0  0  0  0  0  0  0  0  0  0  0
   -1.6520   -2.1872  -21.0460 C   0  0  0  0  0  0  0  0  0  0  0  0
   -0.7994   -1.0936  -20.9838 C   0  0  0  0  0  0  0  0  0  0  0  0
    0.5709   -1.2879  -21.0005 C   0  0  0  0  0  0  0  0  0  0  0  0
    1.0733   -2.5993  -21.0688 C   0  0  0  0  0  0  0  0  0  0  0  0
    0.1916   -3.6949  -21.1469 C   0  0  0  0  0  0  0  0  0  0  0  0
   -1.1922   -3.4906  -21.1340 C   0  0  0  0  0  0  0  0  0  0  0  0
   -5.9237   -2.3918  -20.9382 H   0  0  0  0  0  0  0  0  0  0  0  0
    3.1479   -3.5331  -23.3496 C   0  0  0  0  0  0  0  0  0  0  0  0
    2.2525   -4.5484  -23.6936 C   0  0  0  0  0  0  0  0  0  0  0  0
    2.0900   -4.8524  -25.0328 C   0  0  0  0  0  0  0  0  0  0  0  0
    2.7486   -4.2221  -26.0280 N   0  0  0  0  0  0  0  0  0  0  0  0
    3.5941   -3.2313  -25.6684 C   0  0  0  0  0  0  0  0  0  0  0  0
    3.8228   -2.8483  -24.3580 C   0  0  0  0  0  0  0  0  0  0  0  0
    5.6556   -3.1109  -19.2382 C   0  0  0  0  0  0  0  0  0  0  0  0
    6.3295   -1.7509  -19.0860 C   0  0  0  0  0  0  0  0  0  0  0  0
    5.7776   -1.0093  -17.9992 O   0  0  0  0  0  0  0  0  0  0  0  0
    4.8004   -1.0806  -18.0823 H   0  0  0  0  0  0  0  0  0  0  0  0
  6  7  1  0  0  0
  7  8  1  0  0  0
  8  9  2  0  0  0
  9 10  1  0  0  0
  8 11  1  0  0  0
 11 12  2  0  0  0
  6 12  1  0  0  0
 12 13  1  0  0  0
 13 14  2  0  0  0
 14 15  1  0  0  0
 15 16  2  0  0  0
 11 16  1  0  0  0
 14  1  1  0  0  0
  1  2  2  0  0  0
  2  3  1  0  0  0
  3  4  1  0  0  0
  4  5  2  0  0  0
  1  5  1  0  0  0
  5 18  1  0  0  0
 18 19  2  0  0  0
 19 20  1  0  0  0
 20 21  2  0  0  0
 21 22  1  0  0  0
 22 23  2  0  0  0
 18 23  1  0  0  0
  3 24  1  0  0  0
 24 25  1  0  0  0
 25 26  1  0  0  0
 10 17  1  0  0  0
 26 27  1  0  0  0
M  END
> <minimizedAffinity>
-10.02780

$$$$
mol_11717001_10


 27 30  0  0  0  0  0  0  0  0999 V2000
    3.0864   -2.7750  -21.6149 C   0  0  0  0  0  0  0  0  0  0  0  0
    3.8134   -2.1432  -20.6318 C   0  0  0  0  0  0  0  0  0  0  0  0
    5.1226   -2.3062  -20.9792 N   0  0  0  0  0  0  0  0  0  0  0  0
    5.3010   -3.0116  -22.1170 N   0  0  0  0  0  0  0  0  0  0  0  0
    4.0544   -3.2737  -22.5385 C   0  0  0  0  0  0  0  0  0  0  0  0
   -1.5275   -1.0682  -20.5771 C   0  0  0  0  0  0  0  0  0  0  0  0
   -2.8630   -1.8207  -20.6556 C   0  0  0  0  0  0  0  0  0  0  0  0
   -2.5071   -3.2099  -21.1331 C   0  0  0  0  0  0  0  0  0  0  0  0
   -3.3183   -4.2041  -21.3122 N   0  0  0  0  0  0  0  0  0  0  0  0
   -4.6280   -3.8259  -20.9959 O   0  0  0  0  0  0  0  0  0  0  0  0
   -1.0763   -3.2906  -21.3769 C   0  0  0  0  0  0  0  0  0  0  0  0
   -0.5193   -2.0588  -21.0622 C   0  0  0  0  0  0  0  0  0  0  0  0
    0.8468   -1.8708  -21.1818 C   0  0  0  0  0  0  0  0  0  0  0  0
    1.6480   -2.9433  -21.6113 C   0  0  0  0  0  0  0  0  0  0  0  0
    1.0619   -4.1809  -21.9406 C   0  0  0  0  0  0  0  0  0  0  0  0
   -0.3201   -4.3622  -21.8216 C   0  0  0  0  0  0  0  0  0  0  0  0
   -5.1282   -4.6459  -21.1632 H   0  0  0  0  0  0  0  0  0  0  0  0
    3.7893   -4.0056  -23.7710 C   0  0  0  0  0  0  0  0  0  0  0  0
    3.3718   -3.3219  -24.9151 C   0  0  0  0  0  0  0  0  0  0  0  0
    3.0304   -4.0620  -26.0324 C   0  0  0  0  0  0  0  0  0  0  0  0
    3.0783   -5.4100  -26.0798 N   0  0  0  0  0  0  0  0  0  0  0  0
    3.5040   -6.0449  -24.9655 C   0  0  0  0  0  0  0  0  0  0  0  0
    3.8724   -5.3962  -23.7996 C   0  0  0  0  0  0  0  0  0  0  0  0
    6.2882   -1.8517  -20.2374 C   0  0  0  0  0  0  0  0  0  0  0  0
    6.1730   -2.1845  -18.7532 C   0  0  0  0  0  0  0  0  0  0  0  0
    5.7806   -1.0460  -17.9880 O   0  0  0  0  0  0  0  0  0  0  0  0
    6.3415   -0.2988  -18.2945 H   0  0  0  0  0  0  0  0  0  0  0  0
  6  7  1  0  0  0
  7  8  1  0  0  0
  8  9  2  0  0  0
  9 10  1  0  0  0
  8 11  1  0  0  0
 11 12  2  0  0  0
  6 12  1  0  0  0
 12 13  1  0  0  0
 13 14  2  0  0  0
 14 15  1  0  0  0
 15 16  2  0  0  0
 11 16  1  0  0  0
 14  1  1  0  0  0
  1  2  2  0  0  0
  2  3  1  0  0  0
  3  4  1  0  0  0
  4  5  2  0  0  0
  1  5  1  0  0  0
  5 18  1  0  0  0
 18 19  2  0  0  0
 19 20  1  0  0  0
 20 21  2  0  0  0
 21 22  1  0  0  0
 22 23  2  0  0  0
 18 23  1  0  0  0
  3 24  1  0  0  0
 24 25  1  0  0  0
 25 26  1  0  0  0
 10 17  1  0  0  0
 26 27  1  0  0  0
M  END
> <minimizedAffinity>
-9.70670

$$$$
mol_11717001_10


 27 30  0  0  0  0  0  0  0  0999 V2000
    2.2248   -2.4164  -21.0189 C   0  0  0  0  0  0  0  0  0  0  0  0
    1.2558   -1.7222  -20.3312 C   0  0  0  0  0  0  0  0  0  0  0  0
    0.0845   -1.9837  -20.9800 N   0  0  0  0  0  0  0  0  0  0  0  0
    0.2240   -2.7929  -22.0522 N   0  0  0  0  0  0  0  0  0  0  0  0
    1.5309   -3.0969  -22.0650 C   0  0  0  0  0  0  0  0  0  0  0  0
    6.2397   -3.8309  -18.3435 C   0  0  0  0  0  0  0  0  0  0  0  0
    7.6679   -3.2711  -18.3981 C   0  0  0  0  0  0  0  0  0  0  0  0
    7.6295   -2.1907  -19.4544 C   0  0  0  0  0  0  0  0  0  0  0  0
    8.6057   -1.4198  -19.8166 N   0  0  0  0  0  0  0  0  0  0  0  0
    9.7580   -1.7160  -19.0799 O   0  0  0  0  0  0  0  0  0  0  0  0
    6.2995   -2.1253  -20.0376 C   0  0  0  0  0  0  0  0  0  0  0  0
    5.5073   -3.0713  -19.4016 C   0  0  0  0  0  0  0  0  0  0  0  0
    4.1749   -3.2012  -19.7531 C   0  0  0  0  0  0  0  0  0  0  0  0
    3.6458   -2.3578  -20.7458 C   0  0  0  0  0  0  0  0  0  0  0  0
    4.4699   -1.4147  -21.3903 C   0  0  0  0  0  0  0  0  0  0  0  0
    5.8168   -1.2921  -21.0329 C   0  0  0  0  0  0  0  0  0  0  0  0
   10.4031   -1.0772  -19.4355 H   0  0  0  0  0  0  0  0  0  0  0  0
    2.1114   -3.9866  -23.0632 C   0  0  0  0  0  0  0  0  0  0  0  0
    3.0693   -3.5045  -23.9580 C   0  0  0  0  0  0  0  0  0  0  0  0
    3.5184   -4.3506  -24.9554 C   0  0  0  0  0  0  0  0  0  0  0  0
    3.0829   -5.6183  -25.1131 N   0  0  0  0  0  0  0  0  0  0  0  0
    2.1706   -6.0652  -24.2220 C   0  0  0  0  0  0  0  0  0  0  0  0
    1.6623   -5.2998  -23.1868 C   0  0  0  0  0  0  0  0  0  0  0  0
   -1.2305   -1.4497  -20.6619 C   0  0  0  0  0  0  0  0  0  0  0  0
   -1.4767   -0.1146  -21.3575 C   0  0  0  0  0  0  0  0  0  0  0  0
   -1.4733    0.9698  -20.4303 O   0  0  0  0  0  0  0  0  0  0  0  0
   -2.0302    0.6875  -19.6707 H   0  0  0  0  0  0  0  0  0  0  0  0
  6  7  1  0  0  0
  7  8  1  0  0  0
  8  9  2  0  0  0
  9 10  1  0  0  0
  8 11  1  0  0  0
 11 12  2  0  0  0
  6 12  1  0  0  0
 12 13  1  0  0  0
 13 14  2  0  0  0
 14 15  1  0  0  0
 15 16  2  0  0  0
 11 16  1  0  0  0
 14  1  1  0  0  0
  1  2  2  0  0  0
  2  3  1  0  0  0
  3  4  1  0  0  0
  4  5  2  0  0  0
  1  5  1  0  0  0
  5 18  1  0  0  0
 18 19  2  0  0  0
 19 20  1  0  0  0
 20 21  2  0  0  0
 21 22  1  0  0  0
 22 23  2  0  0  0
 18 23  1  0  0  0
  3 24  1  0  0  0
 24 25  1  0  0  0
 25 26  1  0  0  0
 10 17  1  0  0  0
 26 27  1  0  0  0
M  END
> <minimizedAffinity>
-9.25765

$$$$
mol_44587235_11


 32 36  0  0  0  0  0  0  0  0999 V2000
    4.3203   -2.7518  -20.2919 N   0  0  0  0  0  0  0  0  0  0  0  0
    3.0347   -2.4015  -19.9698 C   0  0  0  0  0  0  0  0  0  0  0  0
    2.2604   -2.7488  -21.0562 C   0  0  0  0  0  0  0  0  0  0  0  0
    3.1805   -3.2542  -22.0196 C   0  0  0  0  0  0  0  0  0  0  0  0
    4.4243   -3.2822  -21.5264 N   0  0  0  0  0  0  0  0  0  0  0  0
    0.8153   -2.6513  -21.1255 C   0  0  0  0  0  0  0  0  0  0  0  0
    0.2214   -1.3786  -21.0447 C   0  0  0  0  0  0  0  0  0  0  0  0
   -1.1599   -1.2793  -21.0045 C   0  0  0  0  0  0  0  0  0  0  0  0
   -1.9358   -2.4291  -21.0518 C   0  0  0  0  0  0  0  0  0  0  0  0
   -1.3869   -3.6968  -21.1493 C   0  0  0  0  0  0  0  0  0  0  0  0
    0.0084   -3.8044  -21.1887 C   0  0  0  0  0  0  0  0  0  0  0  0
   -3.3320   -2.0317  -20.9624 C   0  0  0  0  0  0  0  0  0  0  0  0
   -4.3160   -2.8748  -20.9565 N   0  0  0  0  0  0  0  0  0  0  0  0
   -5.5366   -2.1970  -20.8584 O   0  0  0  0  0  0  0  0  0  0  0  0
   -3.4264   -0.5256  -20.8794 C   0  0  0  0  0  0  0  0  0  0  0  0
   -1.9729   -0.0313  -20.8788 C   0  0  0  0  0  0  0  0  0  0  0  0
   -6.1819   -2.9281  -20.8551 H   0  0  0  0  0  0  0  0  0  0  0  0
    7.3425   -3.6092  -18.0572 C   0  0  0  0  0  0  0  0  0  0  0  0
    8.4160   -2.8923  -18.8869 C   0  0  0  0  0  0  0  0  0  0  0  0
    7.8885   -1.5685  -19.4244 C   0  0  0  0  0  0  0  0  0  0  0  0
    6.6274   -1.7749  -20.2527 C   0  0  0  0  0  0  0  0  0  0  0  0
    5.5247   -2.5334  -19.4815 C   0  0  0  0  0  0  0  0  0  0  0  0
    6.0763   -3.8485  -18.8979 C   0  0  0  0  0  0  0  0  0  0  0  0
    7.8478   -4.9799  -16.1204 C   0  0  0  0  0  0  0  0  0  0  0  0
    7.8683   -4.8934  -17.5762 N   0  0  0  0  0  0  0  0  0  0  0  0
    8.8309   -5.0240  -17.8891 H   0  0  0  0  0  0  0  0  0  0  0  0
    2.8996   -3.7009  -23.3774 C   0  0  0  0  0  0  0  0  0  0  0  0
    3.4528   -3.0319  -24.4675 C   0  0  0  0  0  0  0  0  0  0  0  0
    3.1850   -3.5196  -25.7344 C   0  0  0  0  0  0  0  0  0  0  0  0
    2.4113   -4.6003  -25.9777 N   0  0  0  0  0  0  0  0  0  0  0  0
    1.8725   -5.2172  -24.9042 C   0  0  0  0  0  0  0  0  0  0  0  0
    2.0863   -4.8135  -23.5984 C   0  0  0  0  0  0  0  0  0  0  0  0
 24 25  1  0  0  0
 25 18  1  0  0  0
 18 19  1  0  0  0
 19 20  1  0  0  0
 20 21  1  0  0  0
 21 22  1  0  0  0
 22 23  1  0  0  0
 18 23  1  0  0  0
 22  1  1  0  0  0
  1  2  1  0  0  0
  2  3  2  0  0  0
  3  4  1  0  0  0
  4  5  2  0  0  0
  1  5  1  0  0  0
  4 27  1  0  0  0
 27 28  2  0  0  0
 28 29  1  0  0  0
 29 30  2  0  0  0
 30 31  1  0  0  0
 31 32  2  0  0  0
 27 32  1  0  0  0
  3  6  1  0  0  0
  6  7  2  0  0  0
  7  8  1  0  0  0
  8  9  2  0  0  0
  9 10  1  0  0  0
 10 11  2  0  0  0
  6 11  1  0  0  0
  9 12  1  0  0  0
 12 13  2  0  0  0
 13 14  1  0  0  0
 12 15  1  0  0  0
 15 16  1  0  0  0
  8 16  1  0  0  0
 25 26  1  0  0  0
 14 17  1  0  0  0
M  END
> <minimizedAffinity>
-11.20502

$$$$
mol_44587235_11


 32 36  0  0  0  0  0  0  0  0999 V2000
   -1.7741   -3.5375  -21.3058 N   0  0  0  0  0  0  0  0  0  0  0  0
   -0.7793   -2.9952  -20.5342 C   0  0  0  0  0  0  0  0  0  0  0  0
    0.4075   -3.3259  -21.1528 C   0  0  0  0  0  0  0  0  0  0  0  0
    0.0314   -4.1254  -22.2707 C   0  0  0  0  0  0  0  0  0  0  0  0
   -1.3001   -4.2152  -22.3700 N   0  0  0  0  0  0  0  0  0  0  0  0
    1.7242   -2.8792  -20.7415 C   0  0  0  0  0  0  0  0  0  0  0  0
    2.8123   -3.1060  -21.6039 C   0  0  0  0  0  0  0  0  0  0  0  0
    4.0900   -2.7792  -21.1795 C   0  0  0  0  0  0  0  0  0  0  0  0
    4.2786   -2.2286  -19.9194 C   0  0  0  0  0  0  0  0  0  0  0  0
    3.2301   -1.9749  -19.0509 C   0  0  0  0  0  0  0  0  0  0  0  0
    1.9365   -2.3043  -19.4731 C   0  0  0  0  0  0  0  0  0  0  0  0
    5.7052   -2.0179  -19.7312 C   0  0  0  0  0  0  0  0  0  0  0  0
    6.2189   -1.5349  -18.6441 N   0  0  0  0  0  0  0  0  0  0  0  0
    7.6114   -1.4520  -18.7592 O   0  0  0  0  0  0  0  0  0  0  0  0
    6.4496   -2.4460  -20.9750 C   0  0  0  0  0  0  0  0  0  0  0  0
    5.3693   -2.9797  -21.9261 C   0  0  0  0  0  0  0  0  0  0  0  0
    7.8715   -1.0899  -17.8920 H   0  0  0  0  0  0  0  0  0  0  0  0
   -5.1388   -4.4928  -19.6843 C   0  0  0  0  0  0  0  0  0  0  0  0
   -5.5711   -3.0797  -19.2707 C   0  0  0  0  0  0  0  0  0  0  0  0
   -5.2103   -2.0671  -20.3496 C   0  0  0  0  0  0  0  0  0  0  0  0
   -3.7189   -2.0976  -20.6556 C   0  0  0  0  0  0  0  0  0  0  0  0
   -3.2167   -3.5080  -21.0358 C   0  0  0  0  0  0  0  0  0  0  0  0
   -3.6266   -4.5377  -19.9652 C   0  0  0  0  0  0  0  0  0  0  0  0
   -4.4807   -5.4305  -17.5459 C   0  0  0  0  0  0  0  0  0  0  0  0
   -5.4728   -5.4425  -18.6150 N   0  0  0  0  0  0  0  0  0  0  0  0
   -5.5292   -6.3915  -18.9860 H   0  0  0  0  0  0  0  0  0  0  0  0
    0.9037   -4.7939  -23.2270 C   0  0  0  0  0  0  0  0  0  0  0  0
    1.1075   -4.2503  -24.4939 C   0  0  0  0  0  0  0  0  0  0  0  0
    1.9748   -4.9045  -25.3507 C   0  0  0  0  0  0  0  0  0  0  0  0
    2.6287   -6.0443  -25.0353 N   0  0  0  0  0  0  0  0  0  0  0  0
    2.3974   -6.5590  -23.8086 C   0  0  0  0  0  0  0  0  0  0  0  0
    1.5563   -5.9770  -22.8772 C   0  0  0  0  0  0  0  0  0  0  0  0
 24 25  1  0  0  0
 25 18  1  0  0  0
 18 19  1  0  0  0
 19 20  1  0  0  0
 20 21  1  0  0  0
 21 22  1  0  0  0
 22 23  1  0  0  0
 18 23  1  0  0  0
 22  1  1  0  0  0
  1  2  1  0  0  0
  2  3  2  0  0  0
  3  4  1  0  0  0
  4  5  2  0  0  0
  1  5  1  0  0  0
  4 27  1  0  0  0
 27 28  2  0  0  0
 28 29  1  0  0  0
 29 30  2  0  0  0
 30 31  1  0  0  0
 31 32  2  0  0  0
 27 32  1  0  0  0
  3  6  1  0  0  0
  6  7  2  0  0  0
  7  8  1  0  0  0
  8  9  2  0  0  0
  9 10  1  0  0  0
 10 11  2  0  0  0
  6 11  1  0  0  0
  9 12  1  0  0  0
 12 13  2  0  0  0
 13 14  1  0  0  0
 12 15  1  0  0  0
 15 16  1  0  0  0
  8 16  1  0  0  0
 25 26  1  0  0  0
 14 17  1  0  0  0
M  END
> <minimizedAffinity>
-10.78037

$$$$
mol_44587235_11


 32 36  0  0  0  0  0  0  0  0999 V2000
   -0.8532   -3.3669  -21.7966 N   0  0  0  0  0  0  0  0  0  0  0  0
    0.2119   -2.9732  -21.0285 C   0  0  0  0  0  0  0  0  0  0  0  0
    1.3417   -3.3899  -21.6995 C   0  0  0  0  0  0  0  0  0  0  0  0
    0.8564   -4.0837  -22.8455 C   0  0  0  0  0  0  0  0  0  0  0  0
   -0.4793   -4.0301  -22.9086 N   0  0  0  0  0  0  0  0  0  0  0  0
    2.7078   -3.1046  -21.3058 C   0  0  0  0  0  0  0  0  0  0  0  0
    2.9422   -2.5695  -20.0260 C   0  0  0  0  0  0  0  0  0  0  0  0
    4.2293   -2.1952  -19.6759 C   0  0  0  0  0  0  0  0  0  0  0  0
    5.2663   -2.3587  -20.5839 C   0  0  0  0  0  0  0  0  0  0  0  0
    5.0763   -2.8980  -21.8452 C   0  0  0  0  0  0  0  0  0  0  0  0
    3.7777   -3.2770  -22.2059 C   0  0  0  0  0  0  0  0  0  0  0  0
    6.4849   -1.8585  -19.9675 C   0  0  0  0  0  0  0  0  0  0  0  0
    7.6349   -1.8467  -20.5644 N   0  0  0  0  0  0  0  0  0  0  0  0
    8.6142   -1.3062  -19.7230 O   0  0  0  0  0  0  0  0  0  0  0  0
    6.1835   -1.3742  -18.5678 C   0  0  0  0  0  0  0  0  0  0  0  0
    4.6719   -1.5748  -18.3901 C   0  0  0  0  0  0  0  0  0  0  0  0
    9.4132   -1.3447  -20.2807 H   0  0  0  0  0  0  0  0  0  0  0  0
   -4.3090   -4.1801  -20.2936 C   0  0  0  0  0  0  0  0  0  0  0  0
   -4.5457   -2.8348  -19.5943 C   0  0  0  0  0  0  0  0  0  0  0  0
   -4.0566   -1.6821  -20.4611 C   0  0  0  0  0  0  0  0  0  0  0  0
   -2.5841   -1.8452  -20.8133 C   0  0  0  0  0  0  0  0  0  0  0  0
   -2.2775   -3.2038  -21.4815 C   0  0  0  0  0  0  0  0  0  0  0  0
   -2.8177   -4.3650  -20.6246 C   0  0  0  0  0  0  0  0  0  0  0  0
   -4.4307   -5.0311  -18.0251 C   0  0  0  0  0  0  0  0  0  0  0  0
   -4.7632   -5.2733  -19.4245 N   0  0  0  0  0  0  0  0  0  0  0  0
   -4.3325   -6.1547  -19.7059 H   0  0  0  0  0  0  0  0  0  0  0  0
    1.6298   -4.7848  -23.8615 C   0  0  0  0  0  0  0  0  0  0  0  0
    2.0227   -4.1275  -25.0258 C   0  0  0  0  0  0  0  0  0  0  0  0
    2.7879   -4.8276  -25.9416 C   0  0  0  0  0  0  0  0  0  0  0  0
    3.1690   -6.1137  -25.7782 N   0  0  0  0  0  0  0  0  0  0  0  0
    2.7579   -6.7317  -24.6503 C   0  0  0  0  0  0  0  0  0  0  0  0
    1.9985   -6.1174  -23.6707 C   0  0  0  0  0  0  0  0  0  0  0  0
 24 25  1  0  0  0
 25 18  1  0  0  0
 18 19  1  0  0  0
 19 20  1  0  0  0
 20 21  1  0  0  0
 21 22  1  0  0  0
 22 23  1  0  0  0
 18 23  1  0  0  0
 22  1  1  0  0  0
  1  2  1  0  0  0
  2  3  2  0  0  0
  3  4  1  0  0  0
  4  5  2  0  0  0
  1  5  1  0  0  0
  4 27  1  0  0  0
 27 28  2  0  0  0
 28 29  1  0  0  0
 29 30  2  0  0  0
 30 31  1  0  0  0
 31 32  2  0  0  0
 27 32  1  0  0  0
  3  6  1  0  0  0
  6  7  2  0  0  0
  7  8  1  0  0  0
  8  9  2  0  0  0
  9 10  1  0  0  0
 10 11  2  0  0  0
  6 11  1  0  0  0
  9 12  1  0  0  0
 12 13  2  0  0  0
 13 14  1  0  0  0
 12 15  1  0  0  0
 15 16  1  0  0  0
  8 16  1  0  0  0
 25 26  1  0  0  0
 14 17  1  0  0  0
M  END
> <minimizedAffinity>
-10.47154

$$$$
mol_60146017_12


 27 30  0  0  0  0  0  0  0  0999 V2000
    2.2657   -3.2992  -22.3731 C   0  0  0  0  0  0  0  0  0  0  0  0
    2.9074   -4.2106  -23.2034 C   0  0  0  0  0  0  0  0  0  0  0  0
    1.9509   -5.0066  -23.7430 N   0  0  0  0  0  0  0  0  0  0  0  0
    0.7231   -4.7444  -23.2785 N   0  0  0  0  0  0  0  0  0  0  0  0
    0.8799   -3.6774  -22.4757 C   0  0  0  0  0  0  0  0  0  0  0  0
    2.1541   -1.5174  -20.5853 C   0  0  0  0  0  0  0  0  0  0  0  0
    3.0269   -2.2291  -21.6320 C   0  0  0  0  0  0  0  0  0  0  0  0
    4.1785   -2.7702  -20.8400 C   0  0  0  0  0  0  0  0  0  0  0  0
    5.3374   -3.3652  -21.3307 C   0  0  0  0  0  0  0  0  0  0  0  0
    6.2963   -3.8270  -20.4251 C   0  0  0  0  0  0  0  0  0  0  0  0
    6.1139   -3.6601  -19.0464 C   0  0  0  0  0  0  0  0  0  0  0  0
    4.9804   -3.0096  -18.5560 C   0  0  0  0  0  0  0  0  0  0  0  0
    4.0319   -2.5632  -19.4634 C   0  0  0  0  0  0  0  0  0  0  0  0
    2.7909   -1.8184  -19.2507 C   0  0  0  0  0  0  0  0  0  0  0  0
    2.2142   -1.3828  -18.1736 N   0  0  0  0  0  0  0  0  0  0  0  0
    2.9090   -1.6955  -17.0088 O   0  0  0  0  0  0  0  0  0  0  0  0
    2.3717   -1.2569  -16.3227 H   0  0  0  0  0  0  0  0  0  0  0  0
   -0.3084   -3.1198  -21.8436 C   0  0  0  0  0  0  0  0  0  0  0  0
   -0.4610   -1.7446  -21.6837 C   0  0  0  0  0  0  0  0  0  0  0  0
   -1.5956   -1.2883  -21.0338 C   0  0  0  0  0  0  0  0  0  0  0  0
   -2.5762   -2.0941  -20.5684 N   0  0  0  0  0  0  0  0  0  0  0  0
   -2.4203   -3.4192  -20.7736 C   0  0  0  0  0  0  0  0  0  0  0  0
   -1.3207   -3.9753  -21.4024 C   0  0  0  0  0  0  0  0  0  0  0  0
    2.1326   -6.0529  -24.7356 C   0  0  0  0  0  0  0  0  0  0  0  0
    3.0317   -7.1722  -24.2237 C   0  0  0  0  0  0  0  0  0  0  0  0
    2.3079   -8.1036  -23.4219 O   0  0  0  0  0  0  0  0  0  0  0  0
    1.7627   -7.5708  -22.8005 H   0  0  0  0  0  0  0  0  0  0  0  0
  6  7  1  0  0  0
  7  8  1  0  0  0
  8  9  2  0  0  0
  9 10  1  0  0  0
 10 11  2  0  0  0
 11 12  1  0  0  0
 12 13  2  0  0  0
  8 13  1  0  0  0
 13 14  1  0  0  0
  6 14  1  0  0  0
 14 15  2  0  0  0
 15 16  1  0  0  0
  7  1  1  0  0  0
  1  2  2  0  0  0
  2  3  1  0  0  0
  3  4  1  0  0  0
  4  5  2  0  0  0
  1  5  1  0  0  0
  5 18  1  0  0  0
 18 19  2  0  0  0
 19 20  1  0  0  0
 20 21  2  0  0  0
 21 22  1  0  0  0
 22 23  2  0  0  0
 18 23  1  0  0  0
  3 24  1  0  0  0
 24 25  1  0  0  0
 25 26  1  0  0  0
 16 17  1  0  0  0
 26 27  1  0  0  0
M  END
> <minimizedAffinity>
-10.31693

$$$$
mol_60146017_12


 27 30  0  0  0  0  0  0  0  0999 V2000
    5.1423   -4.4454  -23.0631 C   0  0  0  0  0  0  0  0  0  0  0  0
    5.2200   -5.6510  -23.7504 C   0  0  0  0  0  0  0  0  0  0  0  0
    6.2632   -6.3446  -23.2303 N   0  0  0  0  0  0  0  0  0  0  0  0
    6.9365   -5.6621  -22.2960 N   0  0  0  0  0  0  0  0  0  0  0  0
    6.2468   -4.5183  -22.1419 C   0  0  0  0  0  0  0  0  0  0  0  0
    3.0511   -3.9500  -24.3916 C   0  0  0  0  0  0  0  0  0  0  0  0
    4.0648   -3.4326  -23.3580 C   0  0  0  0  0  0  0  0  0  0  0  0
    3.2276   -3.1011  -22.1598 C   0  0  0  0  0  0  0  0  0  0  0  0
    3.6330   -2.4488  -20.9988 C   0  0  0  0  0  0  0  0  0  0  0  0
    2.7020   -2.2463  -19.9765 C   0  0  0  0  0  0  0  0  0  0  0  0
    1.3721   -2.6580  -20.1312 C   0  0  0  0  0  0  0  0  0  0  0  0
    0.9505   -3.2579  -21.3189 C   0  0  0  0  0  0  0  0  0  0  0  0
    1.8849   -3.4613  -22.3229 C   0  0  0  0  0  0  0  0  0  0  0  0
    1.7274   -4.0108  -23.6695 C   0  0  0  0  0  0  0  0  0  0  0  0
    0.6950   -4.4780  -24.3007 N   0  0  0  0  0  0  0  0  0  0  0  0
   -0.4728   -4.4560  -23.5438 O   0  0  0  0  0  0  0  0  0  0  0  0
   -1.1371   -4.7855  -24.1779 H   0  0  0  0  0  0  0  0  0  0  0  0
    6.7177   -3.5681  -21.1430 C   0  0  0  0  0  0  0  0  0  0  0  0
    7.3813   -2.4014  -21.5153 C   0  0  0  0  0  0  0  0  0  0  0  0
    7.8403   -1.5664  -20.5103 C   0  0  0  0  0  0  0  0  0  0  0  0
    7.6610   -1.8012  -19.1912 N   0  0  0  0  0  0  0  0  0  0  0  0
    6.9792   -2.9187  -18.8617 C   0  0  0  0  0  0  0  0  0  0  0  0
    6.4887   -3.8210  -19.7884 C   0  0  0  0  0  0  0  0  0  0  0  0
    6.6819   -7.6940  -23.5722 C   0  0  0  0  0  0  0  0  0  0  0  0
    8.0923   -7.7224  -24.1493 C   0  0  0  0  0  0  0  0  0  0  0  0
    9.0815   -7.6164  -23.1274 O   0  0  0  0  0  0  0  0  0  0  0  0
    8.7932   -6.8850  -22.5363 H   0  0  0  0  0  0  0  0  0  0  0  0
  6  7  1  0  0  0
  7  8  1  0  0  0
  8  9  2  0  0  0
  9 10  1  0  0  0
 10 11  2  0  0  0
 11 12  1  0  0  0
 12 13  2  0  0  0
  8 13  1  0  0  0
 13 14  1  0  0  0
  6 14  1  0  0  0
 14 15  2  0  0  0
 15 16  1  0  0  0
  7  1  1  0  0  0
  1  2  2  0  0  0
  2  3  1  0  0  0
  3  4  1  0  0  0
  4  5  2  0  0  0
  1  5  1  0  0  0
  5 18  1  0  0  0
 18 19  2  0  0  0
 19 20  1  0  0  0
 20 21  2  0  0  0
 21 22  1  0  0  0
 22 23  2  0  0  0
 18 23  1  0  0  0
  3 24  1  0  0  0
 24 25  1  0  0  0
 25 26  1  0  0  0
 16 17  1  0  0  0
 26 27  1  0  0  0
M  END
> <minimizedAffinity>
-10.27956

$$$$
mol_60146017_12


 27 30  0  0  0  0  0  0  0  0999 V2000
    3.1701   -3.2022  -22.3207 C   0  0  0  0  0  0  0  0  0  0  0  0
    4.4373   -3.2164  -21.7499 C   0  0  0  0  0  0  0  0  0  0  0  0
    4.2899   -2.9189  -20.4348 N   0  0  0  0  0  0  0  0  0  0  0  0
    3.0264   -2.6332  -20.0973 N   0  0  0  0  0  0  0  0  0  0  0  0
    2.3152   -2.8428  -21.2189 C   0  0  0  0  0  0  0  0  0  0  0  0
    3.9798   -2.8345  -24.6856 C   0  0  0  0  0  0  0  0  0  0  0  0
    2.9525   -3.5290  -23.7766 C   0  0  0  0  0  0  0  0  0  0  0  0
    3.1211   -4.9865  -24.0822 C   0  0  0  0  0  0  0  0  0  0  0  0
    2.3233   -6.0403  -23.6452 C   0  0  0  0  0  0  0  0  0  0  0  0
    2.6559   -7.3433  -24.0253 C   0  0  0  0  0  0  0  0  0  0  0  0
    3.7515   -7.5837  -24.8642 C   0  0  0  0  0  0  0  0  0  0  0  0
    4.5159   -6.5225  -25.3518 C   0  0  0  0  0  0  0  0  0  0  0  0
    4.1817   -5.2349  -24.9612 C   0  0  0  0  0  0  0  0  0  0  0  0
    4.7594   -3.9464  -25.3436 C   0  0  0  0  0  0  0  0  0  0  0  0
    5.7451   -3.6360  -26.1275 N   0  0  0  0  0  0  0  0  0  0  0  0
    6.3675   -4.7422  -26.6986 O   0  0  0  0  0  0  0  0  0  0  0  0
    7.0316   -4.3286  -27.2814 H   0  0  0  0  0  0  0  0  0  0  0  0
    0.8722   -2.6528  -21.1561 C   0  0  0  0  0  0  0  0  0  0  0  0
    0.3216   -1.4035  -20.8795 C   0  0  0  0  0  0  0  0  0  0  0  0
   -1.0570   -1.3066  -20.7912 C   0  0  0  0  0  0  0  0  0  0  0  0
   -1.9019   -2.3443  -20.9826 N   0  0  0  0  0  0  0  0  0  0  0  0
   -1.3416   -3.5336  -21.2890 C   0  0  0  0  0  0  0  0  0  0  0  0
    0.0229   -3.7367  -21.3912 C   0  0  0  0  0  0  0  0  0  0  0  0
    5.3258   -2.8968  -19.4152 C   0  0  0  0  0  0  0  0  0  0  0  0
    5.5508   -1.4937  -18.8638 C   0  0  0  0  0  0  0  0  0  0  0  0
    4.5265   -1.1188  -17.9448 O   0  0  0  0  0  0  0  0  0  0  0  0
    3.6721   -1.3642  -18.3656 H   0  0  0  0  0  0  0  0  0  0  0  0
  6  7  1  0  0  0
  7  8  1  0  0  0
  8  9  2  0  0  0
  9 10  1  0  0  0
 10 11  2  0  0  0
 11 12  1  0  0  0
 12 13  2  0  0  0
  8 13  1  0  0  0
 13 14  1  0  0  0
  6 14  1  0  0  0
 14 15  2  0  0  0
 15 16  1  0  0  0
  7  1  1  0  0  0
  1  2  2  0  0  0
  2  3  1  0  0  0
  3  4  1  0  0  0
  4  5  2  0  0  0
  1  5  1  0  0  0
  5 18  1  0  0  0
 18 19  2  0  0  0
 19 20  1  0  0  0
 20 21  2  0  0  0
 21 22  1  0  0  0
 22 23  2  0  0  0
 18 23  1  0  0  0
  3 24  1  0  0  0
 24 25  1  0  0  0
 25 26  1  0  0  0
 16 17  1  0  0  0
 26 27  1  0  0  0
M  END
> <minimizedAffinity>
-10.13976

$$$$
mol_11639637_13


 30 34  0  0  0  0  0  0  0  0999 V2000
    3.8834   -3.8324  -23.2978 N   0  0  0  0  0  0  0  0  0  0  0  0
    2.5178   -3.9450  -23.3231 C   0  0  0  0  0  0  0  0  0  0  0  0
    2.0660   -3.3525  -22.1655 C   0  0  0  0  0  0  0  0  0  0  0  0
    3.2437   -2.9642  -21.4636 C   0  0  0  0  0  0  0  0  0  0  0  0
    4.3427   -3.2424  -22.1772 N   0  0  0  0  0  0  0  0  0  0  0  0
    0.6737   -3.1308  -21.8329 C   0  0  0  0  0  0  0  0  0  0  0  0
    0.2113   -1.8077  -21.7195 C   0  0  0  0  0  0  0  0  0  0  0  0
   -1.0958   -1.5833  -21.3206 C   0  0  0  0  0  0  0  0  0  0  0  0
   -1.9272   -2.6600  -21.0440 C   0  0  0  0  0  0  0  0  0  0  0  0
   -1.5102   -3.9756  -21.1592 C   0  0  0  0  0  0  0  0  0  0  0  0
   -0.1909   -4.2095  -21.5627 C   0  0  0  0  0  0  0  0  0  0  0  0
   -3.2168   -2.1346  -20.6253 C   0  0  0  0  0  0  0  0  0  0  0  0
   -4.2129   -2.8845  -20.2730 N   0  0  0  0  0  0  0  0  0  0  0  0
   -5.3139   -2.0961  -19.9196 O   0  0  0  0  0  0  0  0  0  0  0  0
   -3.1878   -0.6241  -20.6703 C   0  0  0  0  0  0  0  0  0  0  0  0
   -1.7625   -0.2622  -21.1109 C   0  0  0  0  0  0  0  0  0  0  0  0
   -5.9771   -2.7650  -19.6671 H   0  0  0  0  0  0  0  0  0  0  0  0
    7.9621   -4.4342  -27.2368 C   0  0  0  0  0  0  0  0  0  0  0  0
    7.0308   -4.0014  -26.1941 N   0  0  0  0  0  0  0  0  0  0  0  0
    7.1945   -4.8200  -24.9874 C   0  0  0  0  0  0  0  0  0  0  0  0
    6.2776   -4.3332  -23.8697 C   0  0  0  0  0  0  0  0  0  0  0  0
    4.8089   -4.3162  -24.3226 C   0  0  0  0  0  0  0  0  0  0  0  0
    4.6800   -3.5149  -25.6243 C   0  0  0  0  0  0  0  0  0  0  0  0
    5.6502   -4.0337  -26.6844 C   0  0  0  0  0  0  0  0  0  0  0  0
    3.3276   -2.3388  -20.1511 C   0  0  0  0  0  0  0  0  0  0  0  0
    2.3117   -2.5234  -19.2155 C   0  0  0  0  0  0  0  0  0  0  0  0
    2.4690   -1.9533  -17.9646 C   0  0  0  0  0  0  0  0  0  0  0  0
    3.5442   -1.2202  -17.5999 N   0  0  0  0  0  0  0  0  0  0  0  0
    4.5033   -1.0409  -18.5331 C   0  0  0  0  0  0  0  0  0  0  0  0
    4.4447   -1.5759  -19.8072 C   0  0  0  0  0  0  0  0  0  0  0  0
 18 19  1  0  0  0
 19 20  1  0  0  0
 20 21  1  0  0  0
 21 22  1  0  0  0
 22 23  1  0  0  0
 23 24  1  0  0  0
 19 24  1  0  0  0
 22  1  1  0  0  0
  1  2  1  0  0  0
  2  3  2  0  0  0
  3  4  1  0  0  0
  4  5  2  0  0  0
  1  5  1  0  0  0
  4 25  1  0  0  0
 25 26  2  0  0  0
 26 27  1  0  0  0
 27 28  2  0  0  0
 28 29  1  0  0  0
 29 30  2  0  0  0
 25 30  1  0  0  0
  3  6  1  0  0  0
  6  7  2  0  0  0
  7  8  1  0  0  0
  8  9  2  0  0  0
  9 10  1  0  0  0
 10 11  2  0  0  0
  6 11  1  0  0  0
  9 12  1  0  0  0
 12 13  2  0  0  0
 13 14  1  0  0  0
 12 15  1  0  0  0
 15 16  1  0  0  0
  8 16  1  0  0  0
 14 17  1  0  0  0
M  END
> <minimizedAffinity>
-10.53362

$$$$
mol_11639637_13


 30 34  0  0  0  0  0  0  0  0999 V2000
   -0.6859   -3.3271  -21.8327 N   0  0  0  0  0  0  0  0  0  0  0  0
    0.3951   -2.9604  -21.0743 C   0  0  0  0  0  0  0  0  0  0  0  0
    1.5062   -3.3957  -21.7608 C   0  0  0  0  0  0  0  0  0  0  0  0
    0.9935   -4.0787  -22.9014 C   0  0  0  0  0  0  0  0  0  0  0  0
   -0.3435   -4.0083  -22.9434 N   0  0  0  0  0  0  0  0  0  0  0  0
    2.8774   -3.1135  -21.3886 C   0  0  0  0  0  0  0  0  0  0  0  0
    3.1313   -2.5691  -20.1173 C   0  0  0  0  0  0  0  0  0  0  0  0
    4.4283   -2.2176  -19.7823 C   0  0  0  0  0  0  0  0  0  0  0  0
    5.4536   -2.4100  -20.6982 C   0  0  0  0  0  0  0  0  0  0  0  0
    5.2426   -2.9569  -21.9528 C   0  0  0  0  0  0  0  0  0  0  0  0
    3.9346   -3.3151  -22.2974 C   0  0  0  0  0  0  0  0  0  0  0  0
    6.6877   -1.9310  -20.0966 C   0  0  0  0  0  0  0  0  0  0  0  0
    7.8318   -1.9484  -20.7043 N   0  0  0  0  0  0  0  0  0  0  0  0
    8.8300   -1.4213  -19.8770 O   0  0  0  0  0  0  0  0  0  0  0  0
    6.4089   -1.4290  -18.6985 C   0  0  0  0  0  0  0  0  0  0  0  0
    4.8958   -1.6000  -18.5041 C   0  0  0  0  0  0  0  0  0  0  0  0
    9.6217   -1.4770  -20.4436 H   0  0  0  0  0  0  0  0  0  0  0  0
   -5.6947   -2.3396  -19.2929 C   0  0  0  0  0  0  0  0  0  0  0  0
   -4.2977   -2.5687  -19.6640 N   0  0  0  0  0  0  0  0  0  0  0  0
   -3.8214   -1.5033  -20.5536 C   0  0  0  0  0  0  0  0  0  0  0  0
   -2.3461   -1.6938  -20.8912 C   0  0  0  0  0  0  0  0  0  0  0  0
   -2.0912   -3.0770  -21.5111 C   0  0  0  0  0  0  0  0  0  0  0  0
   -2.6638   -4.1660  -20.5948 C   0  0  0  0  0  0  0  0  0  0  0  0
   -4.1315   -3.8922  -20.2708 C   0  0  0  0  0  0  0  0  0  0  0  0
    1.7508   -4.7766  -23.9310 C   0  0  0  0  0  0  0  0  0  0  0  0
    2.1723   -4.1029  -25.0755 C   0  0  0  0  0  0  0  0  0  0  0  0
    2.9369   -4.7991  -25.9948 C   0  0  0  0  0  0  0  0  0  0  0  0
    3.2907   -6.0957  -25.8533 N   0  0  0  0  0  0  0  0  0  0  0  0
    2.8514   -6.7289  -24.7448 C   0  0  0  0  0  0  0  0  0  0  0  0
    2.0904   -6.1201  -23.7633 C   0  0  0  0  0  0  0  0  0  0  0  0
 18 19  1  0  0  0
 19 20  1  0  0  0
 20 21  1  0  0  0
 21 22  1  0  0  0
 22 23  1  0  0  0
 23 24  1  0  0  0
 19 24  1  0  0  0
 22  1  1  0  0  0
  1  2  1  0  0  0
  2  3  2  0  0  0
  3  4  1  0  0  0
  4  5  2  0  0  0
  1  5  1  0  0  0
  4 25  1  0  0  0
 25 26  2  0  0  0
 26 27  1  0  0  0
 27 28  2  0  0  0
 28 29  1  0  0  0
 29 30  2  0  0  0
 25 30  1  0  0  0
  3  6  1  0  0  0
  6  7  2  0  0  0
  7  8  1  0  0  0
  8  9  2  0  0  0
  9 10  1  0  0  0
 10 11  2  0  0  0
  6 11  1  0  0  0
  9 12  1  0  0  0
 12 13  2  0  0  0
 13 14  1  0  0  0
 12 15  1  0  0  0
 15 16  1  0  0  0
  8 16  1  0  0  0
 14 17  1  0  0  0
M  END
> <minimizedAffinity>
-10.25373

$$$$
mol_11639637_13


 30 34  0  0  0  0  0  0  0  0999 V2000
    0.9314   -2.8132  -21.2046 N   0  0  0  0  0  0  0  0  0  0  0  0
    1.3540   -3.1959  -22.4509 C   0  0  0  0  0  0  0  0  0  0  0  0
    2.7295   -3.2120  -22.3975 C   0  0  0  0  0  0  0  0  0  0  0  0
    3.0551   -2.7579  -21.0867 C   0  0  0  0  0  0  0  0  0  0  0  0
    1.9484   -2.5411  -20.3640 N   0  0  0  0  0  0  0  0  0  0  0  0
    3.5978   -3.6807  -23.4580 C   0  0  0  0  0  0  0  0  0  0  0  0
    4.3087   -4.8787  -23.2659 C   0  0  0  0  0  0  0  0  0  0  0  0
    5.2047   -5.2929  -24.2372 C   0  0  0  0  0  0  0  0  0  0  0  0
    5.3847   -4.5274  -25.3813 C   0  0  0  0  0  0  0  0  0  0  0  0
    4.6912   -3.3508  -25.6104 C   0  0  0  0  0  0  0  0  0  0  0  0
    3.7836   -2.9269  -24.6334 C   0  0  0  0  0  0  0  0  0  0  0  0
    6.3926   -5.1788  -26.2023 C   0  0  0  0  0  0  0  0  0  0  0  0
    6.8079   -4.7034  -27.3338 N   0  0  0  0  0  0  0  0  0  0  0  0
    7.7792   -5.5451  -27.8878 O   0  0  0  0  0  0  0  0  0  0  0  0
    6.8507   -6.4517  -25.5284 C   0  0  0  0  0  0  0  0  0  0  0  0
    6.0726   -6.5092  -24.2063 C   0  0  0  0  0  0  0  0  0  0  0  0
    8.0143   -5.0787  -28.7113 H   0  0  0  0  0  0  0  0  0  0  0  0
   -4.7074   -2.0340  -20.8710 C   0  0  0  0  0  0  0  0  0  0  0  0
   -3.3078   -2.2216  -21.2556 N   0  0  0  0  0  0  0  0  0  0  0  0
   -2.8263   -3.5362  -20.8161 C   0  0  0  0  0  0  0  0  0  0  0  0
   -1.3898   -3.7712  -21.2724 C   0  0  0  0  0  0  0  0  0  0  0  0
   -0.4582   -2.6544  -20.7749 C   0  0  0  0  0  0  0  0  0  0  0  0
   -1.0245   -1.2894  -21.1862 C   0  0  0  0  0  0  0  0  0  0  0  0
   -2.4741   -1.1380  -20.7282 C   0  0  0  0  0  0  0  0  0  0  0  0
    4.3825   -2.5399  -20.5286 C   0  0  0  0  0  0  0  0  0  0  0  0
    4.7804   -3.2087  -19.3729 C   0  0  0  0  0  0  0  0  0  0  0  0
    6.0715   -3.0080  -18.9179 C   0  0  0  0  0  0  0  0  0  0  0  0
    6.9659   -2.1944  -19.5219 N   0  0  0  0  0  0  0  0  0  0  0  0
    6.5464   -1.5437  -20.6280 C   0  0  0  0  0  0  0  0  0  0  0  0
    5.2805   -1.6832  -21.1674 C   0  0  0  0  0  0  0  0  0  0  0  0
 18 19  1  0  0  0
 19 20  1  0  0  0
 20 21  1  0  0  0
 21 22  1  0  0  0
 22 23  1  0  0  0
 23 24  1  0  0  0
 19 24  1  0  0  0
 22  1  1  0  0  0
  1  2  1  0  0  0
  2  3  2  0  0  0
  3  4  1  0  0  0
  4  5  2  0  0  0
  1  5  1  0  0  0
  4 25  1  0  0  0
 25 26  2  0  0  0
 26 27  1  0  0  0
 27 28  2  0  0  0
 28 29  1  0  0  0
 29 30  2  0  0  0
 25 30  1  0  0  0
  3  6  1  0  0  0
  6  7  2  0  0  0
  7  8  1  0  0  0
  8  9  2  0  0  0
  9 10  1  0  0  0
 10 11  2  0  0  0
  6 11  1  0  0  0
  9 12  1  0  0  0
 12 13  2  0  0  0
 13 14  1  0  0  0
 12 15  1  0  0  0
 15 16  1  0  0  0
  8 16  1  0  0  0
 14 17  1  0  0  0
M  END
> <minimizedAffinity>
-9.95075

$$$$
mol_74627710_14


 28 31  0  0  0  0  0  0  0  0999 V2000
    2.1326   -2.2933  -20.6637 C   0  0  0  0  0  0  0  0  0  0  0  0
    1.1794   -1.4848  -20.0864 C   0  0  0  0  0  0  0  0  0  0  0  0
    0.0840   -1.5654  -20.8907 N   0  0  0  0  0  0  0  0  0  0  0  0
    0.2569   -2.3636  -21.9631 N   0  0  0  0  0  0  0  0  0  0  0  0
    1.5045   -2.8449  -21.8237 C   0  0  0  0  0  0  0  0  0  0  0  0
    8.0614   -1.7198  -19.7681 C   0  0  0  0  0  0  0  0  0  0  0  0
    7.1634   -1.8334  -21.0081 C   0  0  0  0  0  0  0  0  0  0  0  0
    5.8497   -2.1696  -20.3747 C   0  0  0  0  0  0  0  0  0  0  0  0
    6.0372   -2.6632  -19.0763 C   0  0  0  0  0  0  0  0  0  0  0  0
    7.5001   -2.6970  -18.7113 C   0  0  0  0  0  0  0  0  0  0  0  0
    4.9577   -3.0629  -18.3064 C   0  0  0  0  0  0  0  0  0  0  0  0
    3.6753   -2.9467  -18.8486 C   0  0  0  0  0  0  0  0  0  0  0  0
    3.4813   -2.4460  -20.1521 C   0  0  0  0  0  0  0  0  0  0  0  0
    4.5831   -2.0676  -20.9306 C   0  0  0  0  0  0  0  0  0  0  0  0
    8.1006   -4.0276  -18.8754 N   0  0  0  0  0  0  0  0  0  0  0  0
    7.9245   -4.7136  -17.6030 O   0  0  0  0  0  0  0  0  0  0  0  0
    7.5061   -4.5783  -19.5014 H   0  0  0  0  0  0  0  0  0  0  0  0
    8.8364   -5.0014  -17.4021 H   0  0  0  0  0  0  0  0  0  0  0  0
    2.0521   -3.7981  -22.7849 C   0  0  0  0  0  0  0  0  0  0  0  0
    3.1938   -3.4874  -23.5265 C   0  0  0  0  0  0  0  0  0  0  0  0
    3.6591   -4.4187  -24.4383 C   0  0  0  0  0  0  0  0  0  0  0  0
    3.0735   -5.6153  -24.6546 N   0  0  0  0  0  0  0  0  0  0  0  0
    1.9788   -5.8980  -23.9158 C   0  0  0  0  0  0  0  0  0  0  0  0
    1.4379   -5.0360  -22.9777 C   0  0  0  0  0  0  0  0  0  0  0  0
   -1.1859   -0.8797  -20.7124 C   0  0  0  0  0  0  0  0  0  0  0  0
   -1.1023    0.5825  -21.1383 C   0  0  0  0  0  0  0  0  0  0  0  0
   -2.1798    1.3459  -20.5977 O   0  0  0  0  0  0  0  0  0  0  0  0
   -2.9974    0.8308  -20.7805 H   0  0  0  0  0  0  0  0  0  0  0  0
  6  7  1  0  0  0
  7  8  1  0  0  0
  8  9  2  0  0  0
  9 10  1  0  0  0
  6 10  1  0  0  0
 10 15  1  0  0  0
 15 16  1  0  0  0
  9 11  1  0  0  0
 11 12  2  0  0  0
 12 13  1  0  0  0
 13 14  2  0  0  0
  8 14  1  0  0  0
 13  1  1  0  0  0
  1  2  2  0  0  0
  2  3  1  0  0  0
  3  4  1  0  0  0
  4  5  2  0  0  0
  1  5  1  0  0  0
  5 19  1  0  0  0
 19 20  2  0  0  0
 20 21  1  0  0  0
 21 22  2  0  0  0
 22 23  1  0  0  0
 23 24  2  0  0  0
 19 24  1  0  0  0
  3 25  1  0  0  0
 25 26  1  0  0  0
 26 27  1  0  0  0
 15 17  1  0  0  0
 16 18  1  0  0  0
 27 28  1  0  0  0
M  END
> <minimizedAffinity>
-9.54156

$$$$
mol_74627710_14


 28 31  0  0  0  0  0  0  0  0999 V2000
    1.2501   -3.2521  -22.1028 C   0  0  0  0  0  0  0  0  0  0  0  0
    1.4891   -3.9614  -23.2584 C   0  0  0  0  0  0  0  0  0  0  0  0
    2.8407   -4.1045  -23.3363 N   0  0  0  0  0  0  0  0  0  0  0  0
    3.5062   -3.5279  -22.3158 N   0  0  0  0  0  0  0  0  0  0  0  0
    2.5397   -3.0230  -21.5294 C   0  0  0  0  0  0  0  0  0  0  0  0
   -4.2956   -3.1583  -19.7537 C   0  0  0  0  0  0  0  0  0  0  0  0
   -3.5129   -4.1434  -20.6335 C   0  0  0  0  0  0  0  0  0  0  0  0
   -2.2987   -3.3298  -20.9558 C   0  0  0  0  0  0  0  0  0  0  0  0
   -2.5450   -1.9664  -20.7437 C   0  0  0  0  0  0  0  0  0  0  0  0
   -3.9509   -1.7361  -20.2490 C   0  0  0  0  0  0  0  0  0  0  0  0
   -1.5669   -1.0203  -21.0012 C   0  0  0  0  0  0  0  0  0  0  0  0
   -0.3228   -1.4587  -21.4616 C   0  0  0  0  0  0  0  0  0  0  0  0
   -0.0687   -2.8294  -21.6714 C   0  0  0  0  0  0  0  0  0  0  0  0
   -1.0740   -3.7752  -21.4307 C   0  0  0  0  0  0  0  0  0  0  0  0
   -4.8741   -1.3289  -21.3165 N   0  0  0  0  0  0  0  0  0  0  0  0
   -5.9997   -2.2508  -21.2551 O   0  0  0  0  0  0  0  0  0  0  0  0
   -5.3083   -0.4405  -21.0504 H   0  0  0  0  0  0  0  0  0  0  0  0
   -6.0474   -2.5713  -22.1770 H   0  0  0  0  0  0  0  0  0  0  0  0
    2.8685   -2.3470  -20.2775 C   0  0  0  0  0  0  0  0  0  0  0  0
    4.0146   -1.5558  -20.1734 C   0  0  0  0  0  0  0  0  0  0  0  0
    4.2898   -0.9539  -18.9581 C   0  0  0  0  0  0  0  0  0  0  0  0
    3.5133   -1.0853  -17.8621 N   0  0  0  0  0  0  0  0  0  0  0  0
    2.4037   -1.8444  -17.9916 C   0  0  0  0  0  0  0  0  0  0  0  0
    2.0399   -2.4849  -19.1635 C   0  0  0  0  0  0  0  0  0  0  0  0
    3.5915   -4.7737  -24.3866 C   0  0  0  0  0  0  0  0  0  0  0  0
    3.6430   -3.9395  -25.6624 C   0  0  0  0  0  0  0  0  0  0  0  0
    3.9069   -2.5663  -25.3778 O   0  0  0  0  0  0  0  0  0  0  0  0
    3.2893   -2.3143  -24.6550 H   0  0  0  0  0  0  0  0  0  0  0  0
  6  7  1  0  0  0
  7  8  1  0  0  0
  8  9  2  0  0  0
  9 10  1  0  0  0
  6 10  1  0  0  0
 10 15  1  0  0  0
 15 16  1  0  0  0
  9 11  1  0  0  0
 11 12  2  0  0  0
 12 13  1  0  0  0
 13 14  2  0  0  0
  8 14  1  0  0  0
 13  1  1  0  0  0
  1  2  2  0  0  0
  2  3  1  0  0  0
  3  4  1  0  0  0
  4  5  2  0  0  0
  1  5  1  0  0  0
  5 19  1  0  0  0
 19 20  2  0  0  0
 20 21  1  0  0  0
 21 22  2  0  0  0
 22 23  1  0  0  0
 23 24  2  0  0  0
 19 24  1  0  0  0
  3 25  1  0  0  0
 25 26  1  0  0  0
 26 27  1  0  0  0
 15 17  1  0  0  0
 16 18  1  0  0  0
 27 28  1  0  0  0
M  END
> <minimizedAffinity>
-9.26065

$$$$
mol_74627710_14


 28 31  0  0  0  0  0  0  0  0999 V2000
    4.4014   -3.2175  -21.2033 C   0  0  0  0  0  0  0  0  0  0  0  0
    5.3607   -3.1864  -20.2162 C   0  0  0  0  0  0  0  0  0  0  0  0
    6.4389   -3.8461  -20.7218 N   0  0  0  0  0  0  0  0  0  0  0  0
    6.2489   -4.3178  -21.9701 N   0  0  0  0  0  0  0  0  0  0  0  0
    5.0084   -3.9136  -22.2948 C   0  0  0  0  0  0  0  0  0  0  0  0
   -1.5868   -2.5837  -21.0602 C   0  0  0  0  0  0  0  0  0  0  0  0
   -0.5931   -3.2296  -22.0360 C   0  0  0  0  0  0  0  0  0  0  0  0
    0.7083   -2.7614  -21.4639 C   0  0  0  0  0  0  0  0  0  0  0  0
    0.5132   -1.6490  -20.6339 C   0  0  0  0  0  0  0  0  0  0  0  0
   -0.9446   -1.2692  -20.5637 C   0  0  0  0  0  0  0  0  0  0  0  0
    1.5855   -1.0302  -20.0131 C   0  0  0  0  0  0  0  0  0  0  0  0
    2.8650   -1.5516  -20.2205 C   0  0  0  0  0  0  0  0  0  0  0  0
    3.0655   -2.6736  -21.0503 C   0  0  0  0  0  0  0  0  0  0  0  0
    1.9757   -3.2762  -21.6925 C   0  0  0  0  0  0  0  0  0  0  0  0
   -1.2912   -0.1598  -21.4620 N   0  0  0  0  0  0  0  0  0  0  0  0
   -1.5275    0.9964  -20.6087 O   0  0  0  0  0  0  0  0  0  0  0  0
   -0.4499    0.1191  -21.9748 H   0  0  0  0  0  0  0  0  0  0  0  0
   -2.4112    1.2885  -20.9063 H   0  0  0  0  0  0  0  0  0  0  0  0
    4.4474   -4.1998  -23.6123 C   0  0  0  0  0  0  0  0  0  0  0  0
    4.0684   -5.4982  -23.9597 C   0  0  0  0  0  0  0  0  0  0  0  0
    3.5609   -5.7179  -25.2283 C   0  0  0  0  0  0  0  0  0  0  0  0
    3.4087   -4.7479  -26.1544 N   0  0  0  0  0  0  0  0  0  0  0  0
    3.7698   -3.4985  -25.7901 C   0  0  0  0  0  0  0  0  0  0  0  0
    4.2841   -3.1762  -24.5461 C   0  0  0  0  0  0  0  0  0  0  0  0
    7.7070   -4.0927  -20.0542 C   0  0  0  0  0  0  0  0  0  0  0  0
    7.5138   -4.4064  -18.5741 C   0  0  0  0  0  0  0  0  0  0  0  0
    8.0055   -3.3514  -17.7486 O   0  0  0  0  0  0  0  0  0  0  0  0
    8.9029   -3.1353  -18.0882 H   0  0  0  0  0  0  0  0  0  0  0  0
  6  7  1  0  0  0
  7  8  1  0  0  0
  8  9  2  0  0  0
  9 10  1  0  0  0
  6 10  1  0  0  0
 10 15  1  0  0  0
 15 16  1  0  0  0
  9 11  1  0  0  0
 11 12  2  0  0  0
 12 13  1  0  0  0
 13 14  2  0  0  0
  8 14  1  0  0  0
 13  1  1  0  0  0
  1  2  2  0  0  0
  2  3  1  0  0  0
  3  4  1  0  0  0
  4  5  2  0  0  0
  1  5  1  0  0  0
  5 19  1  0  0  0
 19 20  2  0  0  0
 20 21  1  0  0  0
 21 22  2  0  0  0
 22 23  1  0  0  0
 23 24  2  0  0  0
 19 24  1  0  0  0
  3 25  1  0  0  0
 25 26  1  0  0  0
 26 27  1  0  0  0
 15 17  1  0  0  0
 16 18  1  0  0  0
 27 28  1  0  0  0
M  END
> <minimizedAffinity>
-9.00728

$$$$
mol_87623644_15


 30 34  0  0  0  0  0  0  0  0999 V2000
   -0.6677   -3.1224  -21.9120 N   0  0  0  0  0  0  0  0  0  0  0  0
    0.4175   -2.6669  -21.2186 C   0  0  0  0  0  0  0  0  0  0  0  0
    1.5207   -3.2139  -21.8137 C   0  0  0  0  0  0  0  0  0  0  0  0
    1.0030   -4.0136  -22.8732 C   0  0  0  0  0  0  0  0  0  0  0  0
   -0.3351   -3.9019  -22.9579 N   0  0  0  0  0  0  0  0  0  0  0  0
    2.8756   -2.9623  -21.3806 C   0  0  0  0  0  0  0  0  0  0  0  0
    3.0942   -2.4226  -20.1040 C   0  0  0  0  0  0  0  0  0  0  0  0
    4.3907   -2.1300  -19.7195 C   0  0  0  0  0  0  0  0  0  0  0  0
    5.4435   -2.3765  -20.5914 C   0  0  0  0  0  0  0  0  0  0  0  0
    5.2650   -2.9226  -21.8499 C   0  0  0  0  0  0  0  0  0  0  0  0
    3.9599   -3.2206  -22.2447 C   0  0  0  0  0  0  0  0  0  0  0  0
    6.6710   -1.9482  -19.9450 C   0  0  0  0  0  0  0  0  0  0  0  0
    7.8347   -2.0202  -20.5110 N   0  0  0  0  0  0  0  0  0  0  0  0
    8.8238   -1.5270  -19.6542 O   0  0  0  0  0  0  0  0  0  0  0  0
    6.3595   -1.4210  -18.5641 C   0  0  0  0  0  0  0  0  0  0  0  0
    4.8345   -1.5319  -18.4247 C   0  0  0  0  0  0  0  0  0  0  0  0
    9.6304   -1.6185  -20.1946 H   0  0  0  0  0  0  0  0  0  0  0  0
   -5.9810   -2.0428  -20.8963 C   0  0  0  0  0  0  0  0  0  0  0  0
   -4.5497   -2.3027  -20.4225 C   0  0  0  0  0  0  0  0  0  0  0  0
   -3.6121   -1.1942  -20.9425 C   0  0  0  0  0  0  0  0  0  0  0  0
   -2.1293   -1.5485  -20.7968 C   0  0  0  0  0  0  0  0  0  0  0  0
   -1.9502   -2.8401  -21.4324 N   0  0  0  0  0  0  0  0  0  0  0  0
   -2.5906   -3.9164  -20.6987 C   0  0  0  0  0  0  0  0  0  0  0  0
   -4.0973   -3.7083  -20.8620 C   0  0  0  0  0  0  0  0  0  0  0  0
    1.7905   -4.8664  -23.7577 C   0  0  0  0  0  0  0  0  0  0  0  0
    2.0834   -6.1825  -23.4108 C   0  0  0  0  0  0  0  0  0  0  0  0
    2.7102   -6.9783  -24.3560 C   0  0  0  0  0  0  0  0  0  0  0  0
    3.0639   -6.5530  -25.5897 N   0  0  0  0  0  0  0  0  0  0  0  0
    2.7921   -5.2666  -25.8907 C   0  0  0  0  0  0  0  0  0  0  0  0
    2.1669   -4.3938  -25.0192 C   0  0  0  0  0  0  0  0  0  0  0  0
 18 19  1  0  0  0
 19 20  1  0  0  0
 20 21  1  0  0  0
 21 22  1  0  0  0
 22 23  1  0  0  0
 23 24  1  0  0  0
 19 24  1  0  0  0
 22  1  1  0  0  0
  1  2  1  0  0  0
  2  3  2  0  0  0
  3  4  1  0  0  0
  4  5  2  0  0  0
  1  5  1  0  0  0
  4 25  1  0  0  0
 25 26  2  0  0  0
 26 27  1  0  0  0
 27 28  2  0  0  0
 28 29  1  0  0  0
 29 30  2  0  0  0
 25 30  1  0  0  0
  3  6  1  0  0  0
  6  7  2  0  0  0
  7  8  1  0  0  0
  8  9  2  0  0  0
  9 10  1  0  0  0
 10 11  2  0  0  0
  6 11  1  0  0  0
  9 12  1  0  0  0
 12 13  2  0  0  0
 13 14  1  0  0  0
 12 15  1  0  0  0
 15 16  1  0  0  0
  8 16  1  0  0  0
 14 17  1  0  0  0
M  END
> <minimizedAffinity>
-11.32178

$$$$
mol_87623644_15


 30 34  0  0  0  0  0  0  0  0999 V2000
    3.8100   -4.1109  -23.1164 N   0  0  0  0  0  0  0  0  0  0  0  0
    2.4444   -4.0981  -23.1530 C   0  0  0  0  0  0  0  0  0  0  0  0
    2.0297   -3.3922  -22.0574 C   0  0  0  0  0  0  0  0  0  0  0  0
    3.2316   -3.0164  -21.3910 C   0  0  0  0  0  0  0  0  0  0  0  0
    4.3156   -3.4134  -22.0820 N   0  0  0  0  0  0  0  0  0  0  0  0
    0.6430   -3.1382  -21.7427 C   0  0  0  0  0  0  0  0  0  0  0  0
    0.1952   -1.8111  -21.6574 C   0  0  0  0  0  0  0  0  0  0  0  0
   -1.1200   -1.5755  -21.2980 C   0  0  0  0  0  0  0  0  0  0  0  0
   -1.9676   -2.6440  -21.0348 C   0  0  0  0  0  0  0  0  0  0  0  0
   -1.5633   -3.9640  -21.1254 C   0  0  0  0  0  0  0  0  0  0  0  0
   -0.2380   -4.2095  -21.4876 C   0  0  0  0  0  0  0  0  0  0  0  0
   -3.2618   -2.1069  -20.6547 C   0  0  0  0  0  0  0  0  0  0  0  0
   -4.2690   -2.8504  -20.3193 N   0  0  0  0  0  0  0  0  0  0  0  0
   -5.3734   -2.0561  -19.9951 O   0  0  0  0  0  0  0  0  0  0  0  0
   -3.2205   -0.5979  -20.7099 C   0  0  0  0  0  0  0  0  0  0  0  0
   -1.7845   -0.2489  -21.1262 C   0  0  0  0  0  0  0  0  0  0  0  0
   -6.0421   -2.7218  -19.7488 H   0  0  0  0  0  0  0  0  0  0  0  0
    7.2996   -7.0149  -26.2497 C   0  0  0  0  0  0  0  0  0  0  0  0
    5.8924   -6.5149  -25.9172 C   0  0  0  0  0  0  0  0  0  0  0  0
    5.8394   -4.9774  -26.0246 C   0  0  0  0  0  0  0  0  0  0  0  0
    4.5786   -4.3774  -25.3958 C   0  0  0  0  0  0  0  0  0  0  0  0
    4.5089   -4.8922  -24.0413 N   0  0  0  0  0  0  0  0  0  0  0  0
    4.2193   -6.3139  -23.9992 C   0  0  0  0  0  0  0  0  0  0  0  0
    5.4697   -7.0211  -24.5248 C   0  0  0  0  0  0  0  0  0  0  0  0
    3.3120   -2.3088  -20.1172 C   0  0  0  0  0  0  0  0  0  0  0  0
    2.3324   -2.4747  -19.1420 C   0  0  0  0  0  0  0  0  0  0  0  0
    2.5427   -1.8874  -17.9048 C   0  0  0  0  0  0  0  0  0  0  0  0
    3.6349   -1.1552  -17.5899 N   0  0  0  0  0  0  0  0  0  0  0  0
    4.5560   -0.9884  -18.5610 C   0  0  0  0  0  0  0  0  0  0  0  0
    4.4407   -1.5360  -19.8254 C   0  0  0  0  0  0  0  0  0  0  0  0
 18 19  1  0  0  0
 19 20  1  0  0  0
 20 21  1  0  0  0
 21 22  1  0  0  0
 22 23  1  0  0  0
 23 24  1  0  0  0
 19 24  1  0  0  0
 22  1  1  0  0  0
  1  2  1  0  0  0
  2  3  2  0  0  0
  3  4  1  0  0  0
  4  5  2  0  0  0
  1  5  1  0  0  0
  4 25  1  0  0  0
 25 26  2  0  0  0
 26 27  1  0  0  0
 27 28  2  0  0  0
 28 29  1  0  0  0
 29 30  2  0  0  0
 25 30  1  0  0  0
  3  6  1  0  0  0
  6  7  2  0  0  0
  7  8  1  0  0  0
  8  9  2  0  0  0
  9 10  1  0  0  0
 10 11  2  0  0  0
  6 11  1  0  0  0
  9 12  1  0  0  0
 12 13  2  0  0  0
 13 14  1  0  0  0
 12 15  1  0  0  0
 15 16  1  0  0  0
  8 16  1  0  0  0
 14 17  1  0  0  0
M  END
> <minimizedAffinity>
-10.55131

$$$$
mol_87623644_15


 30 34  0  0  0  0  0  0  0  0999 V2000
   -0.2788   -3.1533  -21.6135 N   0  0  0  0  0  0  0  0  0  0  0  0
    0.0082   -3.9127  -22.7121 C   0  0  0  0  0  0  0  0  0  0  0  0
    1.3687   -3.9012  -22.8519 C   0  0  0  0  0  0  0  0  0  0  0  0
    1.8369   -3.0850  -21.7821 C   0  0  0  0  0  0  0  0  0  0  0  0
    0.8212   -2.6814  -20.9975 N   0  0  0  0  0  0  0  0  0  0  0  0
    2.0754   -4.6061  -23.8961 C   0  0  0  0  0  0  0  0  0  0  0  0
    2.2608   -5.9919  -23.7783 C   0  0  0  0  0  0  0  0  0  0  0  0
    2.9893   -6.6500  -24.7533 C   0  0  0  0  0  0  0  0  0  0  0  0
    3.5156   -5.9373  -25.8232 C   0  0  0  0  0  0  0  0  0  0  0  0
    3.3379   -4.5741  -25.9784 C   0  0  0  0  0  0  0  0  0  0  0  0
    2.6039   -3.9035  -24.9989 C   0  0  0  0  0  0  0  0  0  0  0  0
    4.2511   -6.8661  -26.6625 C   0  0  0  0  0  0  0  0  0  0  0  0
    4.8865   -6.5062  -27.7332 N   0  0  0  0  0  0  0  0  0  0  0  0
    5.5067   -7.6109  -28.3254 O   0  0  0  0  0  0  0  0  0  0  0  0
    4.1532   -8.2583  -26.0846 C   0  0  0  0  0  0  0  0  0  0  0  0
    3.3217   -8.1053  -24.8030 C   0  0  0  0  0  0  0  0  0  0  0  0
    5.9549   -7.2100  -29.0931 H   0  0  0  0  0  0  0  0  0  0  0  0
   -5.6763   -2.0494  -21.3350 C   0  0  0  0  0  0  0  0  0  0  0  0
   -4.3250   -2.3177  -20.6696 C   0  0  0  0  0  0  0  0  0  0  0  0
   -3.3196   -1.2127  -21.0521 C   0  0  0  0  0  0  0  0  0  0  0  0
   -1.8726   -1.5748  -20.7050 C   0  0  0  0  0  0  0  0  0  0  0  0
   -1.6137   -2.8658  -21.3140 N   0  0  0  0  0  0  0  0  0  0  0  0
   -2.3540   -3.9406  -20.6788 C   0  0  0  0  0  0  0  0  0  0  0  0
   -3.8229   -3.7246  -21.0471 C   0  0  0  0  0  0  0  0  0  0  0  0
    3.2261   -2.7033  -21.5489 C   0  0  0  0  0  0  0  0  0  0  0  0
    3.5427   -1.5437  -20.8466 C   0  0  0  0  0  0  0  0  0  0  0  0
    4.8739   -1.3157  -20.5375 C   0  0  0  0  0  0  0  0  0  0  0  0
    5.8846   -2.1441  -20.8842 N   0  0  0  0  0  0  0  0  0  0  0  0
    5.5533   -3.2470  -21.5864 C   0  0  0  0  0  0  0  0  0  0  0  0
    4.2552   -3.5657  -21.9407 C   0  0  0  0  0  0  0  0  0  0  0  0
 18 19  1  0  0  0
 19 20  1  0  0  0
 20 21  1  0  0  0
 21 22  1  0  0  0
 22 23  1  0  0  0
 23 24  1  0  0  0
 19 24  1  0  0  0
 22  1  1  0  0  0
  1  2  1  0  0  0
  2  3  2  0  0  0
  3  4  1  0  0  0
  4  5  2  0  0  0
  1  5  1  0  0  0
  4 25  1  0  0  0
 25 26  2  0  0  0
 26 27  1  0  0  0
 27 28  2  0  0  0
 28 29  1  0  0  0
 29 30  2  0  0  0
 25 30  1  0  0  0
  3  6  1  0  0  0
  6  7  2  0  0  0
  7  8  1  0  0  0
  8  9  2  0  0  0
  9 10  1  0  0  0
 10 11  2  0  0  0
  6 11  1  0  0  0
  9 12  1  0  0  0
 12 13  2  0  0  0
 13 14  1  0  0  0
 12 15  1  0  0  0
 15 16  1  0  0  0
  8 16  1  0  0  0
 14 17  1  0  0  0
M  END
> <minimizedAffinity>
-10.39807

$$$$
