@<TRIPOS>MOLECULE
mol_11531192_0
 54 58 0 0 0
SMALL
GASTEIGER

@<TRIPOS>ATOM
      1 C           1.0468    0.0836   -0.0286 C.3     1  UNL1       -0.0623
      2 C           2.5668    0.0836   -0.0286 C.3     1  UNL1       -0.0409
      3 C           3.0734   -1.0017    0.9072 C.3     1  UNL1       -0.0331
      4 C           4.5934   -1.0017    0.9072 C.3     1  UNL1        0.0299
      5 N           5.0834   -2.0513    1.8122 N.pl3   1  UNL1       -0.2554
      6 C           4.1282   -2.8975    2.5419 C.3     1  UNL1        0.0299
      7 C           3.0734    1.4367    0.4434 C.3     1  UNL1       -0.0331
      8 N           6.4795   -2.2478    1.9817 N.ar    1  UNL1       -0.1879
      9 C           6.9438   -3.2424    2.8392 C.ar    1  UNL1        0.0555
     10 C           8.3597   -3.4417    3.0111 C.ar    1  UNL1        0.0294
     11 C           9.2956   -2.6126    2.2962 C.ar    1  UNL1        0.1023
     12 N           7.3538   -1.4733    1.3139 N.ar    1  UNL1       -0.1521
     13 C           8.7889   -1.5273    1.3604 C.ar    1  UNL1        0.0056
     14 C           9.7248   -0.6983    0.6456 C.ar    1  UNL1       -0.0343
     15 C           9.2448    0.3301   -0.2411 C.ar    1  UNL1        0.0282
     16 N          10.1499    1.1319   -0.9324 N.ar    1  UNL1       -0.2632
     17 C           9.6856    2.1264   -1.7899 C.ar    1  UNL1        0.0282
     18 C           7.3730   -1.3280    1.1886 C.ar    1  UNL1       -0.0343
     19 C           8.8664   -4.5270    3.9469 C.ar    1  UNL1       -0.0140
     20 C          10.2823   -4.7263    4.1187 C.ar    1  UNL1       -0.0501
     21 C          10.7624   -5.7547    5.0054 C.ar    1  UNL1       -0.0375
     22 C          12.1783   -5.9540    5.1773 C.ar    1  UNL1        0.0026
     23 C          13.1142   -5.1249    4.4624 C.ar    1  UNL1       -0.0519
     24 C           7.9305   -5.3560    4.6617 C.ar    1  UNL1       -0.0533
     25 C          12.6850   -7.0393    6.1131 C.2     1  UNL1        0.0876
     26 N          11.8301   -7.7967    6.7661 N.2     1  UNL1       -0.0915
     27 O          10.4831   -7.6071    6.6026 O.2     1  UNL1       -0.4090
     28 C          14.1794   -7.2497    6.2945 C.3     1  UNL1       -0.0027
     29 C           9.7746   -6.6296    5.7598 C.3     1  UNL1       -0.0215
     30 H           0.6901   -0.8689   -0.3609 H       1  UNL1        0.0232
     31 H           0.6901    0.8477   -0.6874 H       1  UNL1        0.0232
     32 H           0.6901    0.2721    0.9624 H       1  UNL1        0.0232
     33 H           2.9234   -0.1049   -1.0197 H       1  UNL1        0.0299
     34 H           2.7167   -1.9542    0.5749 H       1  UNL1        0.0283
     35 H           2.7167   -0.8132    1.8982 H       1  UNL1        0.0283
     36 H           4.9501   -0.0492    1.2395 H       1  UNL1        0.0480
     37 H           4.9501   -1.1902   -0.0838 H       1  UNL1        0.0480
     38 H           4.1815   -2.9934    3.6062 H       1  UNL1        0.0480
     39 H           3.7699   -3.9043    2.4882 H       1  UNL1        0.0480
     40 H           3.8136    1.9709   -0.1148 H       1  UNL1        0.0283
     41 H           2.6514    2.3732    0.7432 H       1  UNL1        0.0283
     42 H           6.2731   -3.8364    3.3514 H       1  UNL1        0.0852
     43 H          10.7395   -0.8411    0.7687 H       1  UNL1        0.0639
     44 H           8.2302    0.4729   -0.3643 H       1  UNL1        0.0830
     45 H           9.7523    2.9063   -2.4624 H       1  UNL1        0.0830
     46 H           6.4478   -1.6742    1.4871 H       1  UNL1        0.0639
     47 H          10.9530   -4.1323    3.6065 H       1  UNL1        0.0627
     48 H          14.0384   -4.7772    4.1626 H       1  UNL1        0.0624
     49 H           7.0063   -5.7038    4.9616 H       1  UNL1        0.0624
     50 H           9.8742   -8.1464    7.0677 H       1  UNL1        0.3278
     51 H          14.8346   -7.6667    5.5585 H       1  UNL1        0.0333
     52 H          15.0604   -7.1761    6.8973 H       1  UNL1        0.0333
     53 H           9.1922   -6.2151    6.5560 H       1  UNL1        0.0317
     54 H           8.9510   -7.2536    5.4822 H       1  UNL1        0.0317
@<TRIPOS>BOND
     1     1     2    1
     2     2     3    1
     3     3     4    1
     4     4     5    1
     5     5     6    1
     6     6     7    1
     7     2     7    1
     8     5     8    1
     9     8     9   ar
    10     9    10   ar
    11    10    11   ar
    12    11    12   ar
    13     8    12   ar
    14    11    13    1
    15    13    14   ar
    16    14    15   ar
    17    15    16   ar
    18    16    17   ar
    19    17    18   ar
    20    13    18   ar
    21    10    19    1
    22    19    20   ar
    23    20    21   ar
    24    21    22   ar
    25    22    23   ar
    26    23    24   ar
    27    19    24   ar
    28    22    25    1
    29    25    26    2
    30    26    27    1
    31    25    28    1
    32    28    29    1
    33    21    29    1
    34     1    30    1
    35     1    31    1
    36     1    32    1
    37     2    33    1
    38     3    34    1
    39     3    35    1
    40     4    36    1
    41     4    37    1
    42     6    38    1
    43     6    39    1
    44     7    40    1
    45     7    41    1
    46     9    42    1
    47    14    43    1
    48    15    44    1
    49    17    45    1
    50    18    46    1
    51    20    47    1
    52    23    48    1
    53    24    49    1
    54    27    50    1
    55    28    51    1
    56    28    52    1
    57    29    53    1
    58    29    54    1